                                  MODFLOW-2000
      U.S. GEOLOGICAL SURVEY MODULAR FINITE-DIFFERENCE GROUND-WATER FLOW MODEL
                           VERSION 1.19.01 03/25/2010


 This model run combines GLOBAL and LIST output into this single file.

 GLOBAL LISTING FILE: tutorial2.list
                         UNIT    2

 OPENING tutorial2.dis
 FILE TYPE:DIS   UNIT   11   STATUS:OLD    
 FORMAT:FORMATTED              ACCESS:SEQUENTIAL          

 OPENING tutorial2.bas
 FILE TYPE:BAS6   UNIT   13   STATUS:OLD    
 FORMAT:FORMATTED              ACCESS:SEQUENTIAL          

 OPENING tutorial2.pcg
 FILE TYPE:PCG   UNIT   27   STATUS:OLD    
 FORMAT:FORMATTED              ACCESS:SEQUENTIAL          

 OPENING tutorial2.wel
 FILE TYPE:WEL   UNIT   20   STATUS:OLD    
 FORMAT:FORMATTED              ACCESS:SEQUENTIAL          

 OPENING tutorial2.oc
 FILE TYPE:OC   UNIT   14   STATUS:OLD    
 FORMAT:FORMATTED              ACCESS:SEQUENTIAL          

 OPENING tutorial2.lpf
 FILE TYPE:LPF   UNIT   15   STATUS:OLD    
 FORMAT:FORMATTED              ACCESS:SEQUENTIAL          

 OPENING tutorial2.hds
 FILE TYPE:DATA(BINARY)   UNIT   51   STATUS:REPLACE
 FORMAT:BINARY                 ACCESS:SEQUENTIAL          

 OPENING tutorial2.ddn
 FILE TYPE:DATA(BINARY)   UNIT   52   STATUS:REPLACE
 FORMAT:BINARY                 ACCESS:SEQUENTIAL          

 OPENING tutorial2.cbc
 FILE TYPE:DATA(BINARY)   UNIT   53   STATUS:REPLACE
 FORMAT:BINARY                 ACCESS:SEQUENTIAL          

 THE FREE FORMAT OPTION HAS BEEN SELECTED

 DISCRETIZATION INPUT DATA READ FROM UNIT   11
 # DIS package for  MODFLOW-2005, generated by Flopy.
    1 LAYERS        50 ROWS        50 COLUMNS
    2 STRESS PERIOD(S) IN SIMULATION
 MODEL TIME UNIT IS DAYS
 MODEL LENGTH UNIT IS METERS
 THE GROUND-WATER TRANSPORT PROCESS IS INACTIVE

 THE OBSERVATION PROCESS IS INACTIVE
 THE SENSITIVITY PROCESS IS INACTIVE
 THE PARAMETER-ESTIMATION PROCESS IS INACTIVE

 MODE: FORWARD

  Confining bed flag for each layer:
   0

      22600  ELEMENTS OF GX ARRAY USED OUT OF      22600
       2500  ELEMENTS OF GZ ARRAY USED OUT OF       2500
       2500  ELEMENTS OF IG ARRAY USED OUT OF       2500

                     DELR =   20.0000    

                     DELC =   20.0000    

 TOP ELEVATION OF LAYER 1 =   10.0000    

   MODEL LAYER BOTTOM EL. =  -50.0000     FOR LAYER   1


 STRESS PERIOD     LENGTH       TIME STEPS     MULTIPLIER FOR DELT    SS FLAG
 ----------------------------------------------------------------------------
        1         1.000000          1                    1.000         SS
        2         100.0000        100                    1.000         TR

 COMBINED STEADY-STATE AND TRANSIENT SIMULATION




 LPF1 -- LAYER PROPERTY FLOW PACKAGE, VERSION 1, 1/11/2000
         INPUT READ FROM UNIT   15
 # LPF package for  MODFLOW-2005, generated by Flopy.
 CELL-BY-CELL FLOWS WILL BE SAVED ON UNIT   53
 HEAD AT CELLS THAT CONVERT TO DRY= -1.00000E+30
 No named parameters

   LAYER FLAGS:
 LAYER       LAYTYP        LAYAVG         CHANI        LAYVKA        LAYWET
 ---------------------------------------------------------------------------
    1             1             0     1.000E+00             0             0

   INTERPRETATION OF LAYER FLAGS:
                        INTERBLOCK     HORIZONTAL    DATA IN
         LAYER TYPE   TRANSMISSIVITY   ANISOTROPY   ARRAY VKA   WETTABILITY
 LAYER      (LAYTYP)      (LAYAVG)       (CHANI)      (LAYVKA)      (LAYWET)
 ---------------------------------------------------------------------------
    1   CONVERTIBLE      HARMONIC     1.000E+00    VERTICAL K  NON-WETTABLE

      10000 ELEMENTS IN X ARRAY ARE USED BY LPF
          6 ELEMENTS IN IX ARRAY ARE USED BY LPF

 PCG2 -- CONJUGATE GRADIENT SOLUTION PACKAGE, VERSION 2.4, 12/29/98
 # PCG package for  MODFLOW-2005, generated by Flopy.
 MAXIMUM OF     50 CALLS OF SOLUTION ROUTINE
 MAXIMUM OF     30 INTERNAL ITERATIONS PER CALL TO SOLUTION ROUTINE
 MATRIX PRECONDITIONING TYPE :    1
       8000 ELEMENTS IN X ARRAY ARE USED BY PCG
      10500 ELEMENTS IN IX ARRAY ARE USED BY PCG
      10000 ELEMENTS IN Z ARRAY ARE USED BY PCG

      18000  ELEMENTS OF X ARRAY USED OUT OF      18000
      10000  ELEMENTS OF Z ARRAY USED OUT OF      10000
      10506  ELEMENTS OF IX ARRAY USED OUT OF      10506
          0  ELEMENTS OF XHS ARRAY USED OUT OF          1



                                    SOLUTION BY THE CONJUGATE-GRADIENT METHOD
                                   -------------------------------------------
                    MAXIMUM NUMBER OF CALLS TO PCG ROUTINE =       50
                        MAXIMUM ITERATIONS PER CALL TO PCG =       30
                               MATRIX PRECONDITIONING TYPE =        1
        RELAXATION FACTOR (ONLY USED WITH PRECOND. TYPE 1) =    0.10000E+01
 PARAMETER OF POLYNOMIAL PRECOND. = 2 (2) OR IS CALCULATED :        0
                         HEAD CHANGE CRITERION FOR CLOSURE =    0.10000E-04
                     RESIDUAL CHANGE CRITERION FOR CLOSURE =    0.10000E-04
            PCG HEAD AND RESIDUAL CHANGE PRINTOUT INTERVAL =      999
     PRINTING FROM SOLVER IS LIMITED(1) OR SUPPRESSED (>1) =        3
                                         DAMPING PARAMETER =    0.10000E+01

 WETTING CAPABILITY IS NOT ACTIVE IN ANY LAYER



              HYD. COND. ALONG ROWS FOR LAYER   1
 READING ON UNIT   15 WITH FORMAT: (50E15.6)           

      VERTICAL HYD. COND. =   1.00000     FOR LAYER   1

         SPECIFIC STORAGE =  1.000000E-04 FOR LAYER   1

           SPECIFIC YIELD =  0.100000     FOR LAYER   1
 
 # BAS6 package for  MODFLOW-2005, generated by Flopy.                           
 THE FREE FORMAT OPTION HAS BEEN SELECTED
    1 LAYERS        50 ROWS        50 COLUMNS
    2 STRESS PERIOD(S) IN SIMULATION

 BAS6 -- BASIC PACKAGE, VERSION 6, 1/11/2000 INPUT READ FROM UNIT   13
          5 ELEMENTS IN IR ARRAY ARE USED BY BAS

 WEL6 -- WELL PACKAGE, VERSION 6, 1/11/2000 INPUT READ FROM UNIT   20
 # WEL package for  MODFLOW-2005, generated by Flopy.
 No named parameters
 MAXIMUM OF      1 ACTIVE WELLS AT ONE TIME
          4 ELEMENTS IN RX ARRAY ARE USED BY WEL

          4  ELEMENTS OF RX ARRAY USED OUT OF          4
          0  ELEMENTS OF RZ ARRAY USED OUT OF          1
          5  ELEMENTS OF IR ARRAY USED OUT OF          5
1
 # BAS6 package for  MODFLOW-2005, generated by Flopy.                           
                                                                                 



                     BOUNDARY ARRAY FOR LAYER   1
 READING ON UNIT   13 WITH FORMAT: (50I10)             

 AQUIFER HEAD WILL BE SET TO -999.99     AT ALL NO-FLOW NODES (IBOUND=0).



                       INITIAL HEAD FOR LAYER   1
 READING ON UNIT   13 WITH FORMAT: (50E15.6)           
 # OC package for  MODFLOW-2005, generated by Flopy.

 OUTPUT CONTROL IS SPECIFIED ONLY AT TIME STEPS FOR WHICH OUTPUT IS DESIRED
 COMPACT CELL-BY-CELL BUDGET FILES WILL BE WRITTEN
 AUXILIARY DATA WILL BE SAVED IN CELL-BY-CELL BUDGET FILES
 HEAD PRINT FORMAT CODE IS   0    DRAWDOWN PRINT FORMAT CODE IS   0
 HEADS WILL BE SAVED ON UNIT   51    DRAWDOWNS WILL BE SAVED ON UNIT   52


     0 Well parameters
1
                            STRESS PERIOD NO.    1, LENGTH =   1.000000    
                            -----------------------------------------------

                              NUMBER OF TIME STEPS =     1

                               MULTIPLIER FOR DELT =     1.000

                            INITIAL TIME STEP SIZE =   1.000000    

 WELL NO.  LAYER   ROW   COL   STRESS RATE         
 --------------------------------------------------
      1      1     25     25       0.000    

      1 WELL
 
 SOLVING FOR HEAD 

 OUTPUT CONTROL FOR STRESS PERIOD    1   TIME STEP   1
    SAVE HEAD FOR ALL LAYERS
    SAVE DRAWDOWN FOR ALL LAYERS
    SAVE BUDGET
    PRINT HEAD FOR ALL LAYERS
    PRINT BUDGET
 UBDSV2 SAVING "   CONSTANT HEAD" ON UNIT  53 AT TIME STEP  1, STRESS PERIOD   1
 UBDSV1 SAVING "FLOW RIGHT FACE " ON UNIT  53 AT TIME STEP  1, STRESS PERIOD   1
 UBDSV1 SAVING "FLOW FRONT FACE " ON UNIT  53 AT TIME STEP  1, STRESS PERIOD   1
1
              HEAD IN LAYER   1 AT END OF TIME STEP   1 IN STRESS PERIOD    1
  ---------------------------------------------------------------------------

            1           2           3           4           5           6           7           8           9          10
           11          12          13          14          15          16          17          18          19          20
           21          22          23          24          25          26          27          28          29          30
           31          32          33          34          35          36          37          38          39          40
           41          42          43          44          45          46          47          48          49          50
 ........................................................................................................................
   1    10.00       9.953       9.906       9.851       9.808       9.771       9.722       9.655       9.581       9.513    
        9.362       9.174       9.035       8.881       8.716       8.549       8.395       8.217       7.979       7.743    
        7.582       7.397       7.154       6.907       6.688       6.495       6.222       5.973       5.797       5.612    
        5.451       5.345       5.228       5.093       4.964       4.804       4.632       4.400       4.135       3.846    
        3.475       3.099       2.607       2.072       1.670       1.381       1.165      0.9189      0.5394       0.000    
   2    10.00       9.948       9.898       9.852       9.815       9.779       9.725       9.656       9.588       9.496    
        9.350       9.181       9.025       8.884       8.732       8.561       8.377       8.195       7.973       7.735    
        7.559       7.408       7.149       6.883       6.688       6.471       6.208       5.970       5.770       5.595    
        5.458       5.359       5.259       5.114       4.964       4.805       4.607       4.391       4.134       3.805    
        3.458       3.137       2.620       2.088       1.732       1.474       1.225      0.9490      0.5728       0.000    
   3    10.00       9.940       9.898       9.866       9.831       9.794       9.735       9.653       9.571       9.471    
        9.338       9.189       9.039       8.897       8.716       8.502       8.324       8.166       7.963       7.754    
        7.573       7.359       7.106       6.872       6.660       6.418       6.170       5.936       5.729       5.597    
        5.481       5.384       5.283       5.124       4.966       4.797       4.602       4.360       4.074       3.821    
        3.512       3.074       2.570       2.187       1.883       1.582       1.276      0.9619      0.5428       0.000    
   4    10.00       9.940       9.903       9.874       9.850       9.811       9.744       9.649       9.552       9.453    
        9.326       9.192       9.042       8.865       8.644       8.446       8.318       8.141       7.945       7.782    
        7.537       7.268       7.046       6.839       6.634       6.348       6.075       5.890       5.744       5.627    
        5.520       5.418       5.309       5.125       4.930       4.778       4.572       4.322       4.075       3.851    
        3.500       3.017       2.635       2.311       1.984       1.642       1.273      0.9056      0.4639       0.000    
   5    10.00       9.945       9.911       9.882       9.860       9.820       9.749       9.642       9.533       9.434    
        9.327       9.190       8.999       8.792       8.605       8.448       8.291       8.126       7.942       7.715    
        7.435       7.213       7.029       6.818       6.561       6.267       6.040       5.905       5.784       5.667    
        5.546       5.421       5.297       5.122       4.923       4.739       4.553       4.353       4.126       3.829    
        3.430       3.060       2.732       2.404       2.046       1.648       1.184      0.7630      0.3950       0.000    
   6    10.00       9.954       9.921       9.893       9.863       9.819       9.743       9.628       9.533       9.428    
        9.308       9.139       8.931       8.759       8.588       8.411       8.252       8.105       7.901       7.647    
        7.399       7.187       7.000       6.744       6.467       6.242       6.056       5.927       5.799       5.678    
        5.570       5.432       5.276       5.096       4.903       4.743       4.578       4.395       4.154       3.833    
        3.481       3.121       2.784       2.453       2.064       1.582       1.082      0.7177      0.3694       0.000    
   7    10.00       9.960       9.931       9.902       9.870       9.817       9.716       9.605       9.507       9.378    
        9.256       9.078       8.890       8.714       8.541       8.364       8.208       8.076       7.845       7.575    
        7.354       7.143       6.936       6.689       6.452       6.245       6.080       5.936       5.801       5.700    
        5.588       5.440       5.272       5.084       4.914       4.771       4.619       4.427       4.177       3.881    
        3.528       3.157       2.806       2.440       2.055       1.549       1.036      0.6838      0.3236       0.000    
   8    10.00       9.967       9.941       9.909       9.872       9.787       9.665       9.560       9.439       9.316    
        9.182       9.002       8.844       8.667       8.475       8.305       8.172       8.016       7.803       7.543    
        7.291       7.097       6.927       6.677       6.436       6.252       6.068       5.918       5.819       5.724    
        5.592       5.443       5.298       5.126       4.940       4.787       4.670       4.519       4.268       3.923    
        3.534       3.202       2.873       2.445       2.016       1.450      0.9598      0.6700      0.3100       0.000    
   9    10.00       9.974       9.945       9.909       9.847       9.736       9.607       9.486       9.380       9.254    
        9.097       8.937       8.782       8.615       8.419       8.261       8.138       7.959       7.752       7.495    
        7.275       7.086       6.858       6.612       6.410       6.248       6.061       5.926       5.828       5.722    
        5.599       5.461       5.322       5.170       5.006       4.851       4.722       4.585       4.322       3.946    
        3.585       3.286       2.937       2.522       1.886       1.248      0.9145      0.5667      0.2162       0.000    
  10    10.00       9.974       9.944       9.894       9.799       9.668       9.526       9.432       9.332       9.185    
        9.048       8.892       8.738       8.561       8.384       8.242       8.081       7.898       7.685       7.479    
        7.267       6.994       6.765       6.570       6.396       6.252       6.082       5.936       5.841       5.741    
        5.606       5.458       5.331       5.186       5.039       4.927       4.793       4.630       4.327       3.951    
        3.665       3.399       2.996       2.371       1.635       1.173      0.8303      0.5068      0.2528       0.000    
  11    10.00       9.974       9.935       9.857       9.751       9.605       9.480       9.402       9.284       9.159    
        9.028       8.866       8.684       8.497       8.349       8.201       8.055       7.861       7.659       7.459    
        7.177       6.917       6.730       6.553       6.385       6.230       6.075       5.951       5.863       5.767    
        5.616       5.472       5.358       5.222       5.091       4.963       4.811       4.633       4.346       4.039    
        3.734       3.386       2.948       2.259       1.569       1.103      0.7784      0.5903      0.3260       0.000    
  12    10.00       9.973       9.917       9.818       9.680       9.537       9.438       9.360       9.258       9.145    
        9.004       8.833       8.653       8.486       8.336       8.175       8.009       7.819       7.620       7.365    
        7.095       6.896       6.716       6.539       6.360       6.205       6.086       5.980       5.872       5.761    
        5.628       5.504       5.399       5.281       5.158       5.027       4.855       4.632       4.362       4.081    
        3.753       3.373       2.773       2.000       1.415       1.087      0.8646      0.6266      0.3570       0.000    
  13    10.00       9.964       9.878       9.743       9.600       9.478       9.399       9.331       9.245       9.138    
        8.991       8.815       8.649       8.517       8.343       8.147       7.957       7.755       7.541       7.301    
        7.069       6.862       6.675       6.501       6.334       6.213       6.115       5.988       5.852       5.753    
        5.655       5.545       5.443       5.334       5.214       5.092       4.928       4.667       4.382       4.049    
        3.672       3.195       2.502       1.876       1.450       1.169      0.9092      0.6282      0.3103       0.000    
  14    10.00       9.934       9.812       9.664       9.533       9.438       9.385       9.324       9.242       9.126    
        8.965       8.817       8.680       8.542       8.353       8.124       7.922       7.698       7.465       7.226    
        7.010       6.812       6.628       6.461       6.321       6.236       6.124       5.980       5.855       5.767    
        5.685       5.579       5.482       5.372       5.257       5.152       4.958       4.687       4.381       3.966    
        3.522       2.963       2.429       1.970       1.544       1.214      0.9254      0.6289      0.2800       0.000    
  15    10.00       9.877       9.743       9.612       9.508       9.435       9.377       9.320       9.240       9.134    
        8.993       8.848       8.717       8.530       8.316       8.102       7.876       7.648       7.382       7.134    
        6.943       6.762       6.591       6.449       6.335       6.235       6.120       5.975       5.865       5.788    
        5.704       5.604       5.518       5.412       5.294       5.176       4.970       4.706       4.323       3.874    
        3.414       2.908       2.473       1.998       1.638       1.286      0.9368      0.6227      0.2553       0.000    
  16    10.00       9.858       9.713       9.594       9.504       9.438       9.380       9.327       9.251       9.142    
        9.012       8.876       8.722       8.495       8.269       8.095       7.879       7.580       7.288       7.062    
        6.870       6.720       6.593       6.464       6.343       6.242       6.121       5.989       5.885       5.797    
        5.723       5.635       5.531       5.432       5.322       5.185       4.992       4.671       4.252       3.840    
        3.442       2.950       2.458       2.038       1.698       1.328      0.9336      0.5578      0.2099       0.000    
  17    10.00       9.840       9.695       9.599       9.520       9.454       9.396       9.337       9.256       9.155    
        9.037       8.872       8.668       8.432       8.245       8.085       7.841       7.523       7.229       7.017    
        6.857       6.704       6.575       6.468       6.358       6.247       6.127       6.017       5.913       5.820    
        5.753       5.663       5.542       5.432       5.320       5.172       4.943       4.664       4.315       3.874    
        3.414       2.893       2.437       2.065       1.717       1.338      0.9533      0.5810      0.2455       0.000    
  18    10.00       9.831       9.695       9.613       9.542       9.478       9.421       9.351       9.271       9.164    
        9.026       8.836       8.614       8.417       8.237       8.019       7.749       7.475       7.222       7.021    
        6.840       6.665       6.553       6.469       6.367       6.253       6.151       6.048       5.961       5.868    
        5.784       5.684       5.549       5.418       5.297       5.136       4.909       4.673       4.365       3.951    
        3.348       2.793       2.421       2.067       1.770       1.371      0.9473      0.5693      0.2451       0.000    
  19    10.00       9.839       9.726       9.642       9.566       9.502       9.435       9.370       9.297       9.175    
        9.013       8.814       8.596       8.383       8.158       7.931       7.688       7.436       7.201       7.000    
        6.811       6.649       6.559       6.481       6.372       6.256       6.157       6.065       6.003       5.924    
        5.823       5.699       5.537       5.397       5.281       5.145       4.918       4.652       4.338       3.853    
        3.248       2.777       2.405       2.057       1.725       1.314      0.9093      0.5655      0.2664       0.000    
  20    10.00       9.849       9.752       9.678       9.605       9.529       9.451       9.381       9.307       9.184    
        9.009       8.804       8.555       8.286       8.038       7.860       7.628       7.371       7.173       6.985    
        6.822       6.682       6.575       6.484       6.374       6.271       6.162       6.075       6.016       5.955    
        5.869       5.701       5.522       5.403       5.280       5.127       4.867       4.596       4.240       3.701    
        3.180       2.802       2.372       1.976       1.616       1.212      0.9116      0.5613      0.2488       0.000    
  21    10.00       9.871       9.784       9.710       9.630       9.557       9.470       9.395       9.315       9.178    
        8.991       8.743       8.441       8.137       7.914       7.760       7.554       7.372       7.192       7.000    
        6.844       6.710       6.591       6.480       6.377       6.290       6.180       6.087       6.029       5.960    
        5.858       5.699       5.542       5.424       5.284       5.058       4.793       4.555       4.042       3.489    
        3.105       2.701       2.264       1.897       1.516       1.163      0.8252      0.4944      0.2483       0.000    
  22    10.00       9.899       9.808       9.727       9.649       9.581       9.483       9.385       9.293       9.153    
        8.929       8.624       8.293       8.016       7.831       7.676       7.526       7.399       7.220       7.044    
        6.897       6.748       6.597       6.474       6.397       6.284       6.181       6.113       6.025       5.938    
        5.835       5.707       5.576       5.446       5.282       5.016       4.732       4.312       3.746       3.397    
        2.988       2.555       2.165       1.813       1.489       1.070      0.7159      0.4740      0.2664       0.000    
  23    10.00       9.900       9.813       9.740       9.658       9.568       9.457       9.369       9.289       9.114    
        8.841       8.519       8.221       7.984       7.798       7.669       7.531       7.378       7.220       7.092    
        6.931       6.755       6.623       6.508       6.389       6.278       6.197       6.096       5.998       5.922    
        5.817       5.716       5.621       5.461       5.252       4.954       4.547       4.072       3.618       3.199    
        2.815       2.459       2.086       1.807       1.397      0.9724      0.6963      0.4558      0.2366       0.000    
  24    10.00       9.922       9.823       9.727       9.633       9.529       9.430       9.355       9.266       9.060    
        8.751       8.449       8.204       7.999       7.822       7.656       7.495       7.362       7.242       7.106    
        6.939       6.784       6.659       6.514       6.380       6.282       6.174       6.066       5.993       5.894    
        5.796       5.729       5.626       5.431       5.201       4.836       4.383       3.983       3.481       3.038    
        2.739       2.398       2.045       1.689       1.250      0.9021      0.6698      0.4269      0.1883       0.000    
  25    10.00       9.915       9.800       9.683       9.573       9.480       9.404       9.329       9.219       9.005    
        8.681       8.401       8.215       8.023       7.821       7.651       7.502       7.387       7.278       7.112    
        6.927       6.790       6.653       6.506       6.379       6.269       6.168       6.064       5.967       5.873    
        5.798       5.722       5.567       5.358       5.128       4.747       4.267       3.808       3.400       3.017    
        2.674       2.304       1.903       1.528       1.112      0.8285      0.6672      0.4151      0.1538       0.000    
  26    10.00       9.893       9.747       9.615       9.527       9.451       9.377       9.284       9.153       8.889    
        8.589       8.395       8.218       8.027       7.837       7.675       7.535       7.420       7.283       7.105    
        6.935       6.784       6.639       6.509       6.393       6.279       6.161       6.052       5.953       5.860    
        5.778       5.657       5.490       5.289       5.037       4.628       4.117       3.744       3.409       2.992    
        2.631       2.213       1.752       1.351       1.011      0.8111      0.6313      0.3701      0.1575       0.000    
  27    10.00       9.870       9.714       9.591       9.517       9.418       9.320       9.203       9.028       8.779    
        8.569       8.398       8.217       8.031       7.845       7.714       7.616       7.455       7.273       7.081    
        6.925       6.805       6.658       6.527       6.408       6.273       6.146       6.039       5.932       5.837    
        5.712       5.570       5.426       5.215       4.931       4.501       4.101       3.768       3.377       2.984    
        2.609       2.104       1.578       1.202      0.9653      0.7981      0.6005      0.3914      0.1887       0.000    
  28    10.00       9.853       9.738       9.600       9.474       9.353       9.245       9.108       8.935       8.743    
        8.570       8.415       8.234       8.026       7.860       7.755       7.641       7.458       7.240       7.060    
        6.946       6.839       6.692       6.554       6.403       6.259       6.133       6.019       5.893       5.753    
        5.619       5.519       5.363       5.132       4.810       4.441       4.128       3.743       3.339       2.945    
        2.490       2.016       1.494       1.120      0.9548      0.7951      0.6192      0.4088      0.1895       0.000    
  29    10.00       9.858       9.715       9.569       9.417       9.301       9.179       9.027       8.882       8.730    
        8.575       8.420       8.241       8.062       7.919       7.791       7.633       7.423       7.222       7.079    
        6.978       6.867       6.717       6.537       6.378       6.252       6.110       5.959       5.807       5.671    
        5.568       5.447       5.290       5.046       4.716       4.417       4.136       3.779       3.330       2.833    
        2.419       1.915       1.396       1.104      0.9579      0.8008      0.6146      0.3994      0.1986       0.000    
  30    10.00       9.837       9.693       9.517       9.364       9.257       9.127       8.993       8.880       8.742    
        8.581       8.410       8.244       8.099       7.967       7.816       7.609       7.411       7.251       7.115    
        7.020       6.896       6.718       6.524       6.354       6.202       6.040       5.872       5.742       5.620    
        5.501       5.386       5.221       4.951       4.678       4.449       4.168       3.709       3.165       2.670    
        2.257       1.799       1.405       1.134      0.9799      0.8028      0.6038      0.4187      0.2053       0.000    
  31    10.00       9.815       9.648       9.481       9.343       9.232       9.108       8.989       8.875       8.738    
        8.576       8.400       8.255       8.130       7.998       7.821       7.614       7.445       7.317       7.190    
        7.070       6.896       6.688       6.512       6.311       6.114       5.946       5.810       5.699       5.573    
        5.446       5.320       5.139       4.907       4.661       4.419       3.994       3.504       3.061       2.583    
        2.195       1.740       1.358       1.163      0.9983      0.8315      0.6244      0.4193      0.1987       0.000    
  32    10.00       9.800       9.621       9.478       9.361       9.250       9.120       8.982       8.843       8.712    
        8.549       8.396       8.263       8.122       7.994       7.838       7.674       7.543       7.399       7.248    
        7.101       6.901       6.690       6.508       6.266       6.036       5.884       5.767       5.638       5.490    
        5.362       5.266       5.056       4.812       4.606       4.292       3.791       3.344       2.963       2.530    
        2.080       1.659       1.380       1.230       1.050      0.8389      0.6198      0.3984      0.1987       0.000    
  33    10.00       9.794       9.641       9.525       9.408       9.277       9.118       8.964       8.813       8.662    
        8.525       8.395       8.262       8.124       7.981       7.857       7.731       7.609       7.475       7.305    
        7.111       6.919       6.742       6.508       6.219       5.976       5.816       5.697       5.554       5.409    
        5.299       5.165       4.961       4.756       4.480       4.073       3.585       3.218       2.858       2.360    
        1.956       1.683       1.461       1.283       1.077      0.8556      0.5871      0.3506      0.1579       0.000    
  34    10.00       9.812       9.686       9.577       9.446       9.284       9.116       8.933       8.765       8.637    
        8.516       8.396       8.274       8.129       7.998       7.874       7.760       7.658       7.515       7.320    
        7.133       6.966       6.773       6.505       6.188       5.917       5.745       5.611       5.482       5.335    
        5.214       5.075       4.900       4.657       4.337       3.851       3.393       3.077       2.659       2.227    
        1.981       1.802       1.588       1.358       1.088      0.7759      0.4744      0.2807      0.1163       0.000    
  35    10.00       9.843       9.729       9.618       9.476       9.294       9.100       8.895       8.736       8.626    
        8.544       8.421       8.282       8.123       7.981       7.889       7.804       7.687       7.529       7.342    
        7.164       6.991       6.799       6.470       6.105       5.847       5.670       5.545       5.410       5.254    
        5.146       5.004       4.811       4.501       4.019       3.539       3.247       2.930       2.511       2.256    
        2.086       1.882       1.667       1.443       1.101      0.6597      0.3642      0.2393      0.1214       0.000    
  36    10.00       9.861       9.762       9.655       9.503       9.284       9.046       8.855       8.741       8.657    
        8.542       8.397       8.265       8.122       7.997       7.904       7.815       7.703       7.575       7.393    
        7.202       7.018       6.759       6.388       6.042       5.788       5.626       5.482       5.311       5.183    
        5.053       4.887       4.587       4.144       3.724       3.413       3.150       2.822       2.497       2.331    
        2.158       1.975       1.758       1.469       1.004      0.5551      0.3419      0.2187      0.1124       0.000    
  37    10.00       9.875       9.798       9.682       9.479       9.238       9.028       8.878       8.784       8.681    
        8.528       8.372       8.256       8.131       8.009       7.917       7.829       7.723       7.582       7.412    
        7.254       7.037       6.698       6.345       6.003       5.715       5.510       5.332       5.178       5.058    
        4.917       4.673       4.240       3.863       3.591       3.330       3.066       2.814       2.586       2.401    
        2.235       2.030       1.783       1.403      0.9189      0.5347      0.3200      0.2034      0.1020       0.000    
  38    10.00       9.893       9.800       9.672       9.461       9.212       9.033       8.922       8.822       8.697    
        8.533       8.369       8.254       8.136       8.012       7.915       7.835       7.738       7.590       7.445    
        7.290       7.012       6.617       6.233       5.872       5.582       5.352       5.158       5.021       4.906    
        4.735       4.340       3.984       3.768       3.509       3.259       3.073       2.867       2.660       2.483    
        2.289       2.010       1.698       1.286      0.8062      0.5118      0.3599      0.2242      0.1006       0.000    
  39    10.00       9.892       9.785       9.651       9.446       9.221       9.059       8.959       8.832       8.692    
        8.558       8.392       8.259       8.144       8.022       7.917       7.824       7.722       7.602       7.467    
        7.263       6.950       6.525       6.089       5.720       5.442       5.177       4.974       4.887       4.767    
        4.473       4.104       3.908       3.668       3.433       3.263       3.115       2.928       2.729       2.565    
        2.283       1.890       1.524       1.081      0.7184      0.5542      0.4124      0.2685      0.1381       0.000    
  40    10.00       9.882       9.788       9.651       9.462       9.272       9.113       8.978       8.828       8.699    
        8.597       8.430       8.260       8.141       8.028       7.903       7.798       7.719       7.609       7.425    
        7.179       6.812       6.380       5.968       5.600       5.303       4.990       4.838       4.757       4.595    
        4.335       4.088       3.827       3.588       3.430       3.288       3.148       2.976       2.794       2.579    
        2.199       1.771       1.376       1.018      0.7704      0.6013      0.4601      0.3247      0.1594       0.000    
  41    10.00       9.898       9.822       9.688       9.493       9.294       9.140       9.018       8.869       8.715    
        8.591       8.433       8.272       8.160       8.023       7.874       7.787       7.695       7.540       7.330    
        7.072       6.711       6.277       5.877       5.506       5.102       4.821       4.746       4.651       4.536    
        4.342       4.043       3.788       3.606       3.453       3.329       3.177       3.014       2.826       2.491    
        2.048       1.633       1.291       1.028      0.8133      0.6564      0.5055      0.3571      0.1880       0.000    
  42    10.00       9.923       9.839       9.709       9.539       9.347       9.172       9.046       8.909       8.734    
        8.573       8.421       8.281       8.172       8.023       7.867       7.756       7.628       7.456       7.215    
        6.916       6.521       6.141       5.739       5.251       4.903       4.771       4.709       4.630       4.511    
        4.284       4.026       3.793       3.613       3.492       3.361       3.227       3.051       2.752       2.309    
        1.923       1.615       1.319       1.022      0.8233      0.6900      0.5453      0.3716      0.2062       0.000    
  43    10.00       9.939       9.848       9.713       9.544       9.383       9.227       9.084       8.911       8.726    
        8.577       8.422       8.283       8.179       8.037       7.853       7.702       7.555       7.321       7.017    
        6.730       6.353       6.006       5.542       5.085       4.864       4.762       4.690       4.617       4.492    
        4.277       4.045       3.824       3.652       3.537       3.408       3.232       2.981       2.545       2.155    
        1.916       1.644       1.332       1.025      0.8146      0.6914      0.5800      0.4017      0.1882       0.000    
  44    10.00       9.931       9.853       9.712       9.557       9.441       9.281       9.082       8.885       8.731    
        8.581       8.422       8.299       8.187       8.017       7.814       7.638       7.463       7.188       6.891    
        6.552       6.181       5.813       5.353       5.015       4.853       4.764       4.704       4.624       4.465    
        4.250       4.066       3.873       3.714       3.597       3.416       3.184       2.825       2.386       2.131    
        1.912       1.628       1.318       1.038      0.8240      0.6930      0.5802      0.3934      0.1733       0.000    
  45    10.00       9.917       9.822       9.708       9.595       9.443       9.272       9.080       8.885       8.728    
        8.570       8.426       8.316       8.185       7.995       7.776       7.578       7.381       7.086       6.740    
        6.354       5.966       5.573       5.239       5.008       4.871       4.785       4.720       4.616       4.488    
        4.303       4.094       3.923       3.758       3.588       3.398       3.145       2.766       2.387       2.089    
        1.841       1.575       1.286       1.036      0.8494      0.7409      0.5725      0.3408      0.1553       0.000    
  46    10.00       9.899       9.801       9.709       9.579       9.404       9.237       9.080       8.886       8.717    
        8.576       8.443       8.330       8.170       7.967       7.770       7.561       7.302       6.987       6.613    
        6.163       5.781       5.470       5.218       5.043       4.921       4.814       4.724       4.642       4.500    
        4.303       4.122       3.953       3.762       3.594       3.416       3.132       2.695       2.300       2.035    
        1.803       1.548       1.278       1.058      0.9142      0.7746      0.5189      0.2551      0.1109       0.000    
  47    10.00       9.892       9.792       9.665       9.513       9.369       9.226       9.055       8.877       8.727    
        8.597       8.477       8.315       8.141       7.959       7.767       7.534       7.234       6.941       6.488    
        6.003       5.707       5.441       5.244       5.081       4.961       4.851       4.743       4.648       4.500    
        4.294       4.115       3.943       3.764       3.621       3.404       3.010       2.620       2.291       2.010    
        1.807       1.567       1.326       1.115      0.9360      0.7103      0.4267      0.2230      9.2888E-02   0.000    
  48    10.00       9.880       9.759       9.623       9.486       9.358       9.213       9.056       8.891       8.743    
        8.611       8.468       8.290       8.111       7.932       7.741       7.517       7.235       6.871       6.423    
        6.007       5.703       5.445       5.264       5.130       4.981       4.869       4.779       4.661       4.460    
        4.258       4.083       3.926       3.795       3.605       3.320       2.947       2.597       2.285       2.039    
        1.820       1.591       1.374       1.135      0.8676      0.5769      0.3646      0.2162      9.7697E-02   0.000    
  49    10.00       9.869       9.737       9.604       9.491       9.359       9.205       9.051       8.918       8.763    
        8.605       8.424       8.249       8.099       7.895       7.709       7.522       7.207       6.848       6.492    
        6.052       5.714       5.457       5.298       5.140       4.980       4.893       4.805       4.614       4.372    
        4.200       4.061       3.949       3.777       3.557       3.304       2.931       2.582       2.338       2.076    
        1.818       1.608       1.377       1.096      0.7680      0.5142      0.3646      0.2353      0.1207       0.000    
  50    10.00       9.874       9.742       9.606       9.483       9.353       9.216       9.064       8.924       8.786    
        8.591       8.402       8.242       8.040       7.833       7.691       7.514       7.269       6.913       6.561    
        6.113       5.687       5.463       5.302       5.137       5.006       4.901       4.783       4.557       4.328    
        4.186       4.072       3.940       3.762       3.559       3.317       2.941       2.583       2.346       2.109    
        1.865       1.600       1.340       1.039      0.7159      0.5262      0.3923      0.2659      0.1604       0.000    

 HEAD WILL BE SAVED ON UNIT   51 AT END OF TIME STEP   1, STRESS PERIOD    1

 DRAWDOWN WILL BE SAVED ON UNIT   52 AT END OF TIME STEP   1, STRESS PERIOD    1
1
  VOLUMETRIC BUDGET FOR ENTIRE MODEL AT END OF TIME STEP  1 IN STRESS PERIOD   1
  ------------------------------------------------------------------------------

     CUMULATIVE VOLUMES      L**3       RATES FOR THIS TIME STEP      L**3/T
     ------------------                 ------------------------

           IN:                                      IN:
           ---                                      ---
             STORAGE =           0.0000               STORAGE =           0.0000
       CONSTANT HEAD =         372.4592         CONSTANT HEAD =         372.4592
               WELLS =           0.0000                 WELLS =           0.0000

            TOTAL IN =         372.4592              TOTAL IN =         372.4592

          OUT:                                     OUT:
          ----                                     ----
             STORAGE =           0.0000               STORAGE =           0.0000
       CONSTANT HEAD =         372.4591         CONSTANT HEAD =         372.4591
               WELLS =           0.0000                 WELLS =           0.0000

           TOTAL OUT =         372.4591             TOTAL OUT =         372.4591

            IN - OUT =       9.1553E-05              IN - OUT =       9.1553E-05

 PERCENT DISCREPANCY =           0.00     PERCENT DISCREPANCY =           0.00






          TIME SUMMARY AT END OF TIME STEP   1 IN STRESS PERIOD    1
                    SECONDS     MINUTES      HOURS       DAYS        YEARS
                    -----------------------------------------------------------
   TIME STEP LENGTH  86400.      1440.0      24.000      1.0000     2.73785E-03
 STRESS PERIOD TIME  86400.      1440.0      24.000      1.0000     2.73785E-03
         TOTAL TIME  86400.      1440.0      24.000      1.0000     2.73785E-03
1
1
                            STRESS PERIOD NO.    2, LENGTH =   100.0000    
                            -----------------------------------------------

                              NUMBER OF TIME STEPS =   100

                               MULTIPLIER FOR DELT =     1.000

                            INITIAL TIME STEP SIZE =   1.000000    

 WELL NO.  LAYER   ROW   COL   STRESS RATE         
 --------------------------------------------------
      1      1     25     25      -500.0    

      1 WELL
 
 SOLVING FOR HEAD 

 OUTPUT CONTROL FOR STRESS PERIOD    2   TIME STEP   1
    SAVE HEAD FOR ALL LAYERS
    SAVE DRAWDOWN FOR ALL LAYERS
    SAVE BUDGET
    PRINT HEAD FOR ALL LAYERS
    PRINT BUDGET
 UBDSV1 SAVING "         STORAGE" ON UNIT  53 AT TIME STEP  1, STRESS PERIOD   2
 UBDSV2 SAVING "   CONSTANT HEAD" ON UNIT  53 AT TIME STEP  1, STRESS PERIOD   2
 UBDSV1 SAVING "FLOW RIGHT FACE " ON UNIT  53 AT TIME STEP  1, STRESS PERIOD   2
 UBDSV1 SAVING "FLOW FRONT FACE " ON UNIT  53 AT TIME STEP  1, STRESS PERIOD   2
1
              HEAD IN LAYER   1 AT END OF TIME STEP   1 IN STRESS PERIOD    2
  ---------------------------------------------------------------------------

            1           2           3           4           5           6           7           8           9          10
           11          12          13          14          15          16          17          18          19          20
           21          22          23          24          25          26          27          28          29          30
           31          32          33          34          35          36          37          38          39          40
           41          42          43          44          45          46          47          48          49          50
 ........................................................................................................................
   1    10.00       9.953       9.906       9.851       9.808       9.771       9.722       9.655       9.581       9.513    
        9.362       9.174       9.035       8.881       8.716       8.549       8.395       8.217       7.979       7.743    
        7.582       7.397       7.154       6.907       6.688       6.495       6.222       5.973       5.797       5.612    
        5.451       5.345       5.228       5.093       4.964       4.804       4.632       4.400       4.135       3.846    
        3.475       3.099       2.607       2.072       1.670       1.381       1.165      0.9189      0.5394       0.000    
   2    10.00       9.948       9.898       9.852       9.815       9.779       9.725       9.656       9.588       9.496    
        9.350       9.181       9.025       8.884       8.732       8.561       8.377       8.195       7.973       7.735    
        7.559       7.408       7.149       6.883       6.688       6.471       6.208       5.970       5.770       5.595    
        5.458       5.359       5.259       5.114       4.964       4.805       4.607       4.391       4.134       3.805    
        3.458       3.137       2.620       2.088       1.732       1.474       1.225      0.9490      0.5728       0.000    
   3    10.00       9.940       9.898       9.866       9.831       9.794       9.735       9.653       9.571       9.471    
        9.338       9.189       9.039       8.897       8.716       8.502       8.324       8.166       7.963       7.754    
        7.573       7.359       7.106       6.872       6.660       6.418       6.170       5.936       5.729       5.597    
        5.481       5.384       5.283       5.124       4.966       4.797       4.602       4.360       4.074       3.821    
        3.512       3.074       2.570       2.187       1.883       1.582       1.276      0.9619      0.5428       0.000    
   4    10.00       9.940       9.903       9.874       9.850       9.811       9.744       9.649       9.552       9.453    
        9.326       9.192       9.042       8.865       8.644       8.446       8.318       8.141       7.945       7.782    
        7.537       7.268       7.046       6.839       6.634       6.348       6.075       5.890       5.744       5.627    
        5.520       5.418       5.309       5.125       4.930       4.778       4.572       4.322       4.075       3.851    
        3.500       3.017       2.635       2.311       1.984       1.642       1.273      0.9056      0.4639       0.000    
   5    10.00       9.945       9.911       9.882       9.860       9.820       9.749       9.642       9.533       9.434    
        9.327       9.190       8.999       8.792       8.605       8.448       8.291       8.126       7.942       7.715    
        7.435       7.213       7.029       6.818       6.561       6.267       6.040       5.905       5.784       5.667    
        5.546       5.421       5.297       5.122       4.923       4.739       4.553       4.353       4.126       3.829    
        3.430       3.060       2.732       2.404       2.046       1.648       1.184      0.7630      0.3950       0.000    
   6    10.00       9.954       9.921       9.893       9.863       9.819       9.743       9.628       9.533       9.428    
        9.308       9.139       8.931       8.759       8.588       8.411       8.252       8.105       7.901       7.647    
        7.399       7.187       7.000       6.744       6.467       6.242       6.056       5.927       5.799       5.678    
        5.570       5.432       5.276       5.096       4.903       4.743       4.578       4.395       4.154       3.833    
        3.481       3.121       2.784       2.453       2.064       1.582       1.082      0.7177      0.3694       0.000    
   7    10.00       9.960       9.931       9.902       9.870       9.817       9.716       9.605       9.507       9.378    
        9.256       9.078       8.890       8.714       8.541       8.364       8.208       8.076       7.845       7.575    
        7.354       7.143       6.936       6.689       6.452       6.245       6.080       5.936       5.801       5.700    
        5.588       5.440       5.272       5.084       4.914       4.771       4.619       4.427       4.177       3.881    
        3.528       3.157       2.806       2.440       2.055       1.549       1.036      0.6838      0.3236       0.000    
   8    10.00       9.967       9.941       9.909       9.872       9.787       9.665       9.560       9.439       9.316    
        9.182       9.002       8.844       8.667       8.475       8.305       8.172       8.016       7.803       7.543    
        7.291       7.097       6.927       6.677       6.436       6.252       6.068       5.918       5.819       5.724    
        5.592       5.443       5.298       5.126       4.940       4.787       4.670       4.519       4.268       3.923    
        3.534       3.202       2.873       2.445       2.016       1.450      0.9598      0.6700      0.3100       0.000    
   9    10.00       9.974       9.945       9.909       9.847       9.736       9.607       9.486       9.380       9.254    
        9.097       8.937       8.782       8.615       8.419       8.261       8.138       7.959       7.752       7.495    
        7.275       7.086       6.858       6.612       6.410       6.248       6.061       5.926       5.828       5.722    
        5.599       5.461       5.322       5.170       5.006       4.851       4.722       4.585       4.322       3.946    
        3.585       3.286       2.937       2.522       1.886       1.248      0.9145      0.5667      0.2162       0.000    
  10    10.00       9.974       9.944       9.894       9.799       9.668       9.526       9.432       9.332       9.185    
        9.048       8.892       8.738       8.561       8.384       8.242       8.081       7.898       7.685       7.479    
        7.267       6.994       6.765       6.570       6.396       6.252       6.082       5.936       5.841       5.741    
        5.606       5.458       5.331       5.186       5.039       4.927       4.793       4.630       4.327       3.951    
        3.665       3.399       2.996       2.371       1.635       1.173      0.8303      0.5068      0.2528       0.000    
  11    10.00       9.974       9.935       9.857       9.751       9.605       9.480       9.402       9.284       9.159    
        9.028       8.866       8.684       8.497       8.349       8.201       8.055       7.861       7.659       7.459    
        7.177       6.917       6.730       6.553       6.385       6.230       6.075       5.951       5.863       5.767    
        5.616       5.472       5.358       5.222       5.091       4.963       4.811       4.633       4.346       4.039    
        3.734       3.386       2.948       2.259       1.569       1.103      0.7784      0.5903      0.3260       0.000    
  12    10.00       9.973       9.917       9.818       9.680       9.537       9.438       9.360       9.258       9.145    
        9.004       8.833       8.653       8.486       8.336       8.175       8.009       7.819       7.620       7.365    
        7.095       6.896       6.716       6.539       6.360       6.205       6.086       5.979       5.872       5.761    
        5.627       5.504       5.398       5.281       5.158       5.027       4.855       4.632       4.362       4.081    
        3.753       3.373       2.773       2.000       1.415       1.087      0.8646      0.6266      0.3570       0.000    
  13    10.00       9.964       9.878       9.743       9.600       9.478       9.399       9.331       9.245       9.138    
        8.991       8.815       8.649       8.517       8.343       8.147       7.957       7.755       7.541       7.301    
        7.069       6.862       6.675       6.501       6.334       6.213       6.115       5.988       5.852       5.753    
        5.655       5.545       5.443       5.334       5.214       5.092       4.928       4.667       4.382       4.049    
        3.672       3.195       2.502       1.876       1.450       1.169      0.9092      0.6282      0.3103       0.000    
  14    10.00       9.934       9.812       9.664       9.533       9.438       9.385       9.324       9.242       9.126    
        8.965       8.817       8.680       8.542       8.353       8.124       7.922       7.698       7.465       7.226    
        7.009       6.812       6.628       6.461       6.320       6.236       6.124       5.979       5.855       5.766    
        5.685       5.579       5.482       5.372       5.257       5.152       4.958       4.687       4.381       3.966    
        3.522       2.963       2.429       1.970       1.544       1.214      0.9254      0.6289      0.2800       0.000    
  15    10.00       9.877       9.743       9.612       9.508       9.435       9.377       9.320       9.240       9.134    
        8.993       8.848       8.717       8.530       8.316       8.102       7.876       7.648       7.382       7.134    
        6.943       6.762       6.590       6.449       6.335       6.234       6.119       5.974       5.865       5.787    
        5.703       5.604       5.518       5.412       5.294       5.176       4.970       4.706       4.323       3.874    
        3.414       2.908       2.473       1.998       1.638       1.286      0.9368      0.6227      0.2553       0.000    
  16    10.00       9.858       9.713       9.594       9.504       9.438       9.380       9.327       9.251       9.142    
        9.012       8.876       8.722       8.495       8.269       8.095       7.879       7.580       7.288       7.062    
        6.870       6.720       6.593       6.463       6.343       6.241       6.120       5.989       5.884       5.796    
        5.722       5.635       5.531       5.432       5.322       5.185       4.992       4.671       4.252       3.840    
        3.442       2.950       2.458       2.038       1.698       1.328      0.9336      0.5578      0.2099       0.000    
  17    10.00       9.840       9.695       9.599       9.520       9.454       9.396       9.337       9.256       9.155    
        9.037       8.872       8.668       8.432       8.245       8.085       7.841       7.523       7.229       7.017    
        6.856       6.703       6.574       6.466       6.356       6.245       6.126       6.016       5.912       5.819    
        5.752       5.663       5.541       5.432       5.320       5.172       4.943       4.664       4.315       3.874    
        3.414       2.893       2.437       2.065       1.717       1.338      0.9533      0.5810      0.2455       0.000    
  18    10.00       9.831       9.695       9.613       9.542       9.478       9.421       9.351       9.271       9.164    
        9.026       8.836       8.614       8.417       8.237       8.018       7.749       7.475       7.222       7.021    
        6.839       6.662       6.550       6.465       6.363       6.249       6.148       6.046       5.958       5.867    
        5.783       5.684       5.549       5.418       5.297       5.136       4.909       4.673       4.365       3.951    
        3.348       2.793       2.421       2.067       1.770       1.371      0.9473      0.5693      0.2451       0.000    
  19    10.00       9.839       9.726       9.642       9.566       9.502       9.435       9.370       9.297       9.175    
        9.013       8.814       8.596       8.383       8.158       7.931       7.688       7.436       7.201       6.999    
        6.809       6.645       6.553       6.474       6.364       6.249       6.151       6.060       5.999       5.922    
        5.822       5.698       5.537       5.397       5.281       5.145       4.918       4.652       4.338       3.853    
        3.248       2.777       2.405       2.057       1.725       1.314      0.9093      0.5655      0.2664       0.000    
  20    10.00       9.849       9.752       9.678       9.605       9.529       9.451       9.381       9.307       9.184    
        9.009       8.804       8.555       8.286       8.038       7.860       7.627       7.370       7.172       6.983    
        6.818       6.676       6.566       6.472       6.358       6.256       6.152       6.067       6.011       5.952    
        5.867       5.700       5.522       5.403       5.280       5.127       4.867       4.596       4.240       3.701    
        3.180       2.802       2.372       1.976       1.616       1.212      0.9116      0.5613      0.2488       0.000    
  21    10.00       9.871       9.784       9.710       9.630       9.557       9.470       9.395       9.315       9.178    
        8.991       8.743       8.441       8.137       7.914       7.760       7.554       7.372       7.191       6.998    
        6.839       6.701       6.576       6.450       6.343       6.262       6.158       6.074       6.021       5.955    
        5.855       5.699       5.542       5.424       5.284       5.058       4.793       4.555       4.042       3.489    
        3.105       2.701       2.264       1.897       1.516       1.163      0.8252      0.4944      0.2483       0.000    
  22    10.00       9.899       9.808       9.727       9.649       9.581       9.483       9.385       9.293       9.153    
        8.929       8.624       8.293       8.016       7.831       7.676       7.525       7.398       7.218       7.040    
        6.890       6.732       6.562       6.411       6.323       6.218       6.135       6.087       6.012       5.932    
        5.832       5.706       5.576       5.446       5.282       5.016       4.732       4.312       3.746       3.397    
        2.988       2.555       2.165       1.813       1.489       1.070      0.7159      0.4740      0.2664       0.000    
  23    10.00       9.900       9.813       9.740       9.658       9.568       9.457       9.369       9.289       9.114    
        8.841       8.519       8.221       7.984       7.798       7.669       7.531       7.377       7.217       7.087    
        6.917       6.718       6.549       6.388       6.171       6.112       6.108       6.053       5.977       5.912    
        5.813       5.714       5.620       5.461       5.252       4.954       4.547       4.072       3.618       3.199    
        2.815       2.459       2.086       1.807       1.397      0.9724      0.6963      0.4558      0.2366       0.000    
  24    10.00       9.922       9.823       9.727       9.633       9.529       9.430       9.355       9.266       9.060    
        8.751       8.449       8.204       7.999       7.822       7.656       7.494       7.361       7.238       7.099    
        6.917       6.732       6.546       6.184       5.632       5.884       6.011       5.995       5.957       5.879    
        5.789       5.725       5.624       5.431       5.201       4.836       4.383       3.983       3.481       3.038    
        2.739       2.398       2.045       1.689       1.250      0.9021      0.6698      0.4269      0.1883       0.000    
  25    10.00       9.915       9.800       9.683       9.573       9.480       9.404       9.329       9.219       9.005    
        8.681       8.401       8.215       8.023       7.820       7.651       7.501       7.386       7.275       7.105    
        6.903       6.728       6.452       5.758       3.596       5.549       5.894       5.962       5.926       5.855    
        5.789       5.718       5.566       5.358       5.128       4.747       4.267       3.808       3.400       3.017    
        2.674       2.304       1.903       1.528       1.112      0.8285      0.6672      0.4151      0.1538       0.000    
  26    10.00       9.893       9.747       9.615       9.527       9.451       9.377       9.284       9.153       8.889    
        8.589       8.395       8.218       8.027       7.837       7.674       7.535       7.420       7.281       7.098    
        6.916       6.728       6.482       6.130       5.690       5.861       5.973       5.971       5.916       5.844    
        5.769       5.654       5.489       5.289       5.036       4.628       4.117       3.744       3.409       2.992    
        2.631       2.213       1.752       1.351       1.011      0.8111      0.6313      0.3701      0.1575       0.000    
  27    10.00       9.870       9.714       9.591       9.517       9.418       9.320       9.203       9.028       8.779    
        8.569       8.398       8.217       8.031       7.845       7.714       7.616       7.455       7.271       7.075    
        6.909       6.768       6.566       6.347       6.134       6.087       6.045       5.985       5.905       5.823    
        5.706       5.568       5.426       5.215       4.931       4.501       4.101       3.768       3.377       2.984    
        2.609       2.104       1.578       1.202      0.9653      0.7981      0.6005      0.3914      0.1887       0.000    
  28    10.00       9.853       9.738       9.600       9.474       9.353       9.245       9.108       8.935       8.743    
        8.570       8.415       8.234       8.026       7.860       7.755       7.641       7.457       7.237       7.054    
        6.933       6.815       6.644       6.470       6.305       6.182       6.080       5.986       5.877       5.746    
        5.616       5.517       5.363       5.132       4.810       4.441       4.128       3.743       3.339       2.945    
        2.490       2.016       1.494       1.120      0.9548      0.7951      0.6192      0.4088      0.1895       0.000    
  29    10.00       9.858       9.715       9.569       9.417       9.301       9.179       9.027       8.882       8.730    
        8.575       8.420       8.241       8.062       7.919       7.790       7.633       7.422       7.220       7.074    
        6.969       6.853       6.692       6.500       6.338       6.217       6.085       5.944       5.800       5.668    
        5.566       5.446       5.290       5.046       4.716       4.417       4.136       3.779       3.330       2.833    
        2.419       1.915       1.396       1.104      0.9579      0.8008      0.6146      0.3994      0.1986       0.000    
  30    10.00       9.837       9.693       9.517       9.364       9.257       9.127       8.993       8.880       8.742    
        8.581       8.410       8.244       8.099       7.967       7.816       7.609       7.410       7.249       7.112    
        7.014       6.887       6.706       6.507       6.334       6.186       6.030       5.865       5.738       5.618    
        5.499       5.385       5.220       4.951       4.678       4.449       4.168       3.709       3.165       2.670    
        2.257       1.799       1.405       1.134      0.9799      0.8028      0.6038      0.4187      0.2053       0.000    
  31    10.00       9.815       9.648       9.481       9.343       9.232       9.108       8.989       8.875       8.738    
        8.576       8.400       8.255       8.130       7.998       7.821       7.614       7.444       7.315       7.188    
        7.067       6.893       6.683       6.506       6.303       6.107       5.942       5.807       5.697       5.572    
        5.445       5.320       5.139       4.907       4.661       4.419       3.994       3.504       3.061       2.583    
        2.195       1.740       1.358       1.163      0.9983      0.8315      0.6244      0.4193      0.1987       0.000    
  32    10.00       9.800       9.621       9.478       9.361       9.250       9.120       8.982       8.843       8.712    
        8.549       8.396       8.263       8.122       7.994       7.838       7.674       7.542       7.398       7.247    
        7.100       6.900       6.688       6.505       6.264       6.033       5.882       5.766       5.637       5.490    
        5.362       5.266       5.056       4.812       4.606       4.292       3.791       3.344       2.963       2.530    
        2.080       1.659       1.380       1.230       1.050      0.8389      0.6198      0.3984      0.1987       0.000    
  33    10.00       9.794       9.641       9.525       9.408       9.277       9.118       8.964       8.813       8.662    
        8.525       8.395       8.262       8.124       7.981       7.856       7.731       7.609       7.475       7.304    
        7.110       6.919       6.742       6.507       6.219       5.975       5.815       5.696       5.554       5.408    
        5.299       5.165       4.961       4.756       4.480       4.073       3.585       3.218       2.858       2.360    
        1.956       1.683       1.461       1.283       1.077      0.8556      0.5871      0.3506      0.1579       0.000    
  34    10.00       9.812       9.686       9.577       9.446       9.284       9.116       8.933       8.765       8.637    
        8.516       8.396       8.274       8.129       7.998       7.874       7.760       7.658       7.515       7.320    
        7.133       6.965       6.773       6.505       6.188       5.916       5.745       5.610       5.482       5.335    
        5.214       5.075       4.900       4.657       4.337       3.851       3.393       3.077       2.659       2.227    
        1.981       1.802       1.588       1.358       1.088      0.7759      0.4744      0.2807      0.1163       0.000    
  35    10.00       9.843       9.729       9.618       9.476       9.294       9.100       8.895       8.736       8.626    
        8.544       8.421       8.282       8.123       7.981       7.889       7.804       7.687       7.529       7.342    
        7.164       6.991       6.799       6.470       6.105       5.847       5.669       5.545       5.410       5.254    
        5.145       5.004       4.811       4.501       4.019       3.539       3.247       2.930       2.511       2.256    
        2.086       1.882       1.667       1.443       1.101      0.6597      0.3642      0.2393      0.1214       0.000    
  36    10.00       9.861       9.762       9.655       9.503       9.284       9.046       8.855       8.741       8.657    
        8.542       8.397       8.265       8.122       7.996       7.904       7.815       7.703       7.575       7.393    
        7.202       7.018       6.759       6.388       6.042       5.788       5.625       5.482       5.311       5.183    
        5.053       4.887       4.587       4.144       3.724       3.413       3.150       2.822       2.497       2.331    
        2.158       1.975       1.758       1.469       1.004      0.5551      0.3419      0.2187      0.1124       0.000    
  37    10.00       9.875       9.798       9.682       9.479       9.238       9.028       8.878       8.784       8.681    
        8.528       8.372       8.256       8.131       8.009       7.917       7.829       7.723       7.582       7.412    
        7.254       7.037       6.698       6.345       6.003       5.715       5.510       5.332       5.178       5.058    
        4.917       4.673       4.240       3.863       3.591       3.330       3.066       2.814       2.586       2.401    
        2.235       2.030       1.783       1.403      0.9189      0.5347      0.3200      0.2034      0.1020       0.000    
  38    10.00       9.893       9.800       9.672       9.461       9.212       9.033       8.922       8.822       8.697    
        8.533       8.369       8.254       8.136       8.012       7.915       7.835       7.738       7.590       7.445    
        7.290       7.012       6.617       6.233       5.872       5.582       5.352       5.158       5.021       4.906    
        4.735       4.340       3.984       3.768       3.509       3.259       3.073       2.867       2.660       2.483    
        2.289       2.010       1.698       1.286      0.8062      0.5118      0.3599      0.2242      0.1006       0.000    
  39    10.00       9.892       9.785       9.651       9.446       9.221       9.059       8.959       8.832       8.692    
        8.558       8.392       8.259       8.144       8.022       7.917       7.824       7.722       7.602       7.467    
        7.263       6.950       6.525       6.089       5.720       5.442       5.177       4.974       4.887       4.767    
        4.473       4.104       3.908       3.668       3.433       3.263       3.115       2.928       2.729       2.565    
        2.283       1.890       1.524       1.081      0.7184      0.5542      0.4124      0.2685      0.1381       0.000    
  40    10.00       9.882       9.788       9.651       9.462       9.272       9.113       8.978       8.828       8.699    
        8.597       8.430       8.260       8.141       8.028       7.903       7.798       7.719       7.609       7.425    
        7.179       6.812       6.380       5.968       5.600       5.303       4.990       4.838       4.757       4.595    
        4.335       4.088       3.827       3.588       3.430       3.288       3.148       2.976       2.794       2.579    
        2.199       1.771       1.376       1.018      0.7704      0.6013      0.4601      0.3247      0.1594       0.000    
  41    10.00       9.898       9.822       9.688       9.493       9.294       9.140       9.018       8.869       8.715    
        8.591       8.433       8.272       8.160       8.023       7.874       7.787       7.695       7.540       7.330    
        7.072       6.711       6.277       5.877       5.506       5.102       4.821       4.746       4.651       4.536    
        4.342       4.043       3.788       3.606       3.453       3.329       3.177       3.014       2.826       2.491    
        2.048       1.633       1.291       1.028      0.8133      0.6564      0.5055      0.3571      0.1880       0.000    
  42    10.00       9.923       9.839       9.709       9.539       9.347       9.172       9.046       8.909       8.734    
        8.573       8.421       8.281       8.172       8.023       7.867       7.756       7.628       7.456       7.215    
        6.916       6.521       6.141       5.739       5.251       4.903       4.771       4.709       4.630       4.511    
        4.284       4.026       3.793       3.613       3.492       3.361       3.227       3.051       2.752       2.309    
        1.923       1.615       1.319       1.022      0.8233      0.6900      0.5453      0.3716      0.2062       0.000    
  43    10.00       9.939       9.848       9.713       9.544       9.383       9.227       9.084       8.911       8.726    
        8.577       8.422       8.283       8.179       8.037       7.853       7.702       7.555       7.321       7.017    
        6.730       6.353       6.006       5.542       5.085       4.864       4.762       4.690       4.617       4.492    
        4.277       4.045       3.824       3.652       3.537       3.408       3.232       2.981       2.545       2.155    
        1.916       1.644       1.332       1.025      0.8146      0.6914      0.5800      0.4017      0.1882       0.000    
  44    10.00       9.931       9.853       9.712       9.557       9.441       9.281       9.082       8.885       8.731    
        8.581       8.422       8.299       8.187       8.017       7.814       7.638       7.463       7.188       6.891    
        6.552       6.181       5.813       5.353       5.015       4.853       4.764       4.704       4.624       4.465    
        4.250       4.066       3.873       3.714       3.597       3.416       3.184       2.825       2.386       2.131    
        1.912       1.628       1.318       1.038      0.8240      0.6930      0.5802      0.3934      0.1733       0.000    
  45    10.00       9.917       9.822       9.708       9.595       9.443       9.272       9.080       8.885       8.728    
        8.570       8.426       8.316       8.185       7.995       7.776       7.578       7.381       7.086       6.740    
        6.354       5.966       5.573       5.239       5.008       4.871       4.785       4.720       4.616       4.488    
        4.303       4.094       3.923       3.758       3.588       3.398       3.145       2.766       2.387       2.089    
        1.841       1.575       1.286       1.036      0.8494      0.7409      0.5725      0.3408      0.1553       0.000    
  46    10.00       9.899       9.801       9.709       9.579       9.404       9.237       9.080       8.886       8.717    
        8.576       8.443       8.330       8.170       7.967       7.770       7.561       7.302       6.987       6.613    
        6.163       5.781       5.470       5.218       5.043       4.921       4.814       4.724       4.642       4.500    
        4.303       4.122       3.953       3.762       3.594       3.416       3.132       2.695       2.300       2.035    
        1.803       1.548       1.278       1.058      0.9142      0.7746      0.5189      0.2551      0.1109       0.000    
  47    10.00       9.892       9.792       9.665       9.513       9.369       9.226       9.055       8.877       8.727    
        8.597       8.477       8.315       8.141       7.959       7.767       7.534       7.234       6.941       6.488    
        6.003       5.707       5.441       5.244       5.081       4.961       4.851       4.743       4.648       4.500    
        4.294       4.115       3.943       3.764       3.621       3.404       3.010       2.620       2.291       2.010    
        1.807       1.567       1.326       1.115      0.9360      0.7103      0.4267      0.2230      9.2888E-02   0.000    
  48    10.00       9.880       9.759       9.623       9.486       9.358       9.213       9.056       8.891       8.743    
        8.611       8.468       8.290       8.111       7.932       7.741       7.517       7.235       6.871       6.423    
        6.007       5.703       5.445       5.264       5.130       4.981       4.869       4.779       4.661       4.460    
        4.258       4.083       3.926       3.795       3.605       3.320       2.947       2.597       2.285       2.039    
        1.820       1.591       1.374       1.135      0.8676      0.5769      0.3646      0.2162      9.7697E-02   0.000    
  49    10.00       9.869       9.737       9.604       9.491       9.359       9.205       9.051       8.918       8.763    
        8.605       8.424       8.249       8.099       7.895       7.709       7.522       7.207       6.848       6.492    
        6.052       5.714       5.457       5.298       5.140       4.980       4.893       4.805       4.614       4.372    
        4.200       4.061       3.949       3.777       3.557       3.304       2.931       2.582       2.338       2.076    
        1.818       1.608       1.377       1.096      0.7680      0.5142      0.3646      0.2353      0.1207       0.000    
  50    10.00       9.874       9.742       9.606       9.483       9.353       9.216       9.064       8.924       8.786    
        8.591       8.402       8.242       8.040       7.833       7.691       7.514       7.269       6.913       6.561    
        6.113       5.687       5.463       5.302       5.137       5.006       4.901       4.783       4.557       4.328    
        4.186       4.072       3.940       3.762       3.559       3.317       2.941       2.583       2.346       2.109    
        1.865       1.600       1.340       1.039      0.7159      0.5262      0.3923      0.2659      0.1604       0.000    

 HEAD WILL BE SAVED ON UNIT   51 AT END OF TIME STEP   1, STRESS PERIOD    2

 DRAWDOWN WILL BE SAVED ON UNIT   52 AT END OF TIME STEP   1, STRESS PERIOD    2
1
  VOLUMETRIC BUDGET FOR ENTIRE MODEL AT END OF TIME STEP  1 IN STRESS PERIOD   2
  ------------------------------------------------------------------------------

     CUMULATIVE VOLUMES      L**3       RATES FOR THIS TIME STEP      L**3/T
     ------------------                 ------------------------

           IN:                                      IN:
           ---                                      ---
             STORAGE =         500.0029               STORAGE =         500.0029
       CONSTANT HEAD =         744.9183         CONSTANT HEAD =         372.4591
               WELLS =           0.0000                 WELLS =           0.0000

            TOTAL IN =        1244.9213              TOTAL IN =         872.4620

          OUT:                                     OUT:
          ----                                     ----
             STORAGE =       2.7972E-03               STORAGE =       2.7972E-03
       CONSTANT HEAD =         744.9182         CONSTANT HEAD =         372.4591
               WELLS =         500.0000                 WELLS =         500.0000

           TOTAL OUT =        1244.9209             TOTAL OUT =         872.4619

            IN - OUT =       3.6621E-04              IN - OUT =       1.8311E-04

 PERCENT DISCREPANCY =           0.00     PERCENT DISCREPANCY =           0.00






          TIME SUMMARY AT END OF TIME STEP   1 IN STRESS PERIOD    2
                    SECONDS     MINUTES      HOURS       DAYS        YEARS
                    -----------------------------------------------------------
   TIME STEP LENGTH  86400.      1440.0      24.000      1.0000     2.73785E-03
 STRESS PERIOD TIME  86400.      1440.0      24.000      1.0000     2.73785E-03
         TOTAL TIME 1.72800E+05  2880.0      48.000      2.0000     5.47570E-03
1
 
 SOLVING FOR HEAD 

 OUTPUT CONTROL FOR STRESS PERIOD    2   TIME STEP   2
    SAVE HEAD FOR ALL LAYERS
    SAVE DRAWDOWN FOR ALL LAYERS
    SAVE BUDGET
    PRINT HEAD FOR ALL LAYERS
    PRINT BUDGET
 UBDSV1 SAVING "         STORAGE" ON UNIT  53 AT TIME STEP  2, STRESS PERIOD   2
 UBDSV2 SAVING "   CONSTANT HEAD" ON UNIT  53 AT TIME STEP  2, STRESS PERIOD   2
 UBDSV1 SAVING "FLOW RIGHT FACE " ON UNIT  53 AT TIME STEP  2, STRESS PERIOD   2
 UBDSV1 SAVING "FLOW FRONT FACE " ON UNIT  53 AT TIME STEP  2, STRESS PERIOD   2
1
              HEAD IN LAYER   1 AT END OF TIME STEP   2 IN STRESS PERIOD    2
  ---------------------------------------------------------------------------

            1           2           3           4           5           6           7           8           9          10
           11          12          13          14          15          16          17          18          19          20
           21          22          23          24          25          26          27          28          29          30
           31          32          33          34          35          36          37          38          39          40
           41          42          43          44          45          46          47          48          49          50
 ........................................................................................................................
   1    10.00       9.953       9.906       9.851       9.808       9.771       9.722       9.655       9.581       9.513    
        9.362       9.174       9.035       8.881       8.716       8.549       8.395       8.217       7.979       7.743    
        7.582       7.397       7.154       6.907       6.688       6.495       6.222       5.973       5.797       5.612    
        5.451       5.345       5.228       5.093       4.964       4.804       4.632       4.400       4.135       3.846    
        3.475       3.099       2.607       2.072       1.670       1.381       1.165      0.9189      0.5394       0.000    
   2    10.00       9.948       9.898       9.852       9.815       9.779       9.725       9.656       9.588       9.496    
        9.350       9.181       9.025       8.884       8.732       8.561       8.377       8.195       7.973       7.735    
        7.559       7.408       7.149       6.883       6.688       6.471       6.208       5.970       5.770       5.595    
        5.458       5.359       5.259       5.114       4.964       4.805       4.607       4.391       4.134       3.805    
        3.458       3.137       2.620       2.088       1.732       1.474       1.225      0.9490      0.5728       0.000    
   3    10.00       9.940       9.898       9.866       9.831       9.794       9.735       9.653       9.571       9.471    
        9.338       9.189       9.039       8.897       8.716       8.502       8.324       8.166       7.963       7.754    
        7.573       7.359       7.106       6.872       6.660       6.418       6.170       5.936       5.729       5.597    
        5.481       5.384       5.283       5.124       4.966       4.797       4.602       4.360       4.074       3.821    
        3.512       3.074       2.570       2.187       1.883       1.582       1.276      0.9619      0.5428       0.000    
   4    10.00       9.940       9.903       9.874       9.850       9.811       9.744       9.649       9.552       9.453    
        9.326       9.192       9.042       8.865       8.644       8.446       8.318       8.141       7.945       7.782    
        7.537       7.268       7.046       6.839       6.634       6.348       6.075       5.890       5.744       5.627    
        5.520       5.418       5.309       5.125       4.930       4.778       4.572       4.322       4.075       3.851    
        3.500       3.017       2.635       2.311       1.984       1.642       1.273      0.9056      0.4639       0.000    
   5    10.00       9.945       9.911       9.882       9.860       9.820       9.749       9.642       9.533       9.434    
        9.327       9.190       8.999       8.792       8.605       8.448       8.291       8.126       7.942       7.715    
        7.435       7.213       7.029       6.818       6.561       6.267       6.040       5.905       5.784       5.667    
        5.546       5.421       5.297       5.122       4.923       4.739       4.553       4.353       4.126       3.829    
        3.430       3.060       2.732       2.404       2.046       1.648       1.184      0.7630      0.3950       0.000    
   6    10.00       9.954       9.921       9.893       9.863       9.819       9.743       9.628       9.533       9.428    
        9.308       9.139       8.931       8.759       8.588       8.411       8.252       8.105       7.901       7.647    
        7.399       7.187       7.000       6.744       6.467       6.242       6.056       5.927       5.799       5.678    
        5.570       5.432       5.276       5.096       4.903       4.743       4.578       4.395       4.154       3.833    
        3.481       3.121       2.784       2.453       2.064       1.582       1.082      0.7177      0.3694       0.000    
   7    10.00       9.960       9.931       9.902       9.870       9.817       9.716       9.605       9.507       9.378    
        9.256       9.078       8.890       8.714       8.541       8.364       8.208       8.076       7.845       7.575    
        7.354       7.143       6.936       6.689       6.452       6.245       6.080       5.936       5.801       5.700    
        5.588       5.440       5.272       5.084       4.914       4.771       4.619       4.427       4.177       3.881    
        3.528       3.157       2.806       2.440       2.055       1.549       1.036      0.6838      0.3236       0.000    
   8    10.00       9.967       9.941       9.909       9.872       9.787       9.665       9.560       9.439       9.316    
        9.182       9.002       8.844       8.667       8.475       8.305       8.172       8.016       7.803       7.543    
        7.291       7.097       6.927       6.677       6.436       6.252       6.068       5.918       5.819       5.724    
        5.592       5.443       5.298       5.126       4.940       4.787       4.670       4.519       4.268       3.923    
        3.534       3.202       2.873       2.445       2.016       1.450      0.9598      0.6700      0.3100       0.000    
   9    10.00       9.974       9.945       9.909       9.847       9.736       9.607       9.486       9.380       9.254    
        9.097       8.937       8.782       8.615       8.419       8.261       8.138       7.959       7.752       7.495    
        7.275       7.086       6.858       6.612       6.410       6.248       6.061       5.926       5.828       5.722    
        5.599       5.461       5.322       5.170       5.006       4.851       4.722       4.585       4.322       3.946    
        3.585       3.286       2.937       2.522       1.886       1.248      0.9145      0.5667      0.2162       0.000    
  10    10.00       9.974       9.944       9.894       9.799       9.668       9.526       9.432       9.332       9.185    
        9.048       8.892       8.738       8.561       8.384       8.242       8.081       7.898       7.685       7.479    
        7.267       6.994       6.765       6.570       6.396       6.252       6.082       5.936       5.840       5.741    
        5.606       5.458       5.331       5.186       5.039       4.927       4.793       4.630       4.327       3.951    
        3.665       3.399       2.996       2.371       1.635       1.173      0.8303      0.5068      0.2528       0.000    
  11    10.00       9.974       9.935       9.857       9.751       9.605       9.480       9.402       9.284       9.159    
        9.028       8.866       8.684       8.497       8.349       8.201       8.055       7.861       7.659       7.459    
        7.177       6.917       6.730       6.553       6.385       6.230       6.075       5.951       5.863       5.767    
        5.616       5.472       5.358       5.222       5.091       4.963       4.811       4.633       4.346       4.039    
        3.734       3.386       2.948       2.259       1.569       1.103      0.7784      0.5903      0.3260       0.000    
  12    10.00       9.973       9.917       9.818       9.680       9.537       9.438       9.360       9.258       9.145    
        9.004       8.833       8.653       8.486       8.336       8.175       8.009       7.819       7.620       7.365    
        7.095       6.896       6.715       6.539       6.360       6.204       6.086       5.979       5.872       5.760    
        5.627       5.504       5.398       5.281       5.158       5.027       4.855       4.632       4.362       4.081    
        3.753       3.373       2.773       2.000       1.415       1.087      0.8646      0.6266      0.3570       0.000    
  13    10.00       9.964       9.878       9.743       9.600       9.478       9.399       9.331       9.245       9.138    
        8.991       8.815       8.649       8.517       8.343       8.147       7.957       7.755       7.541       7.301    
        7.069       6.862       6.675       6.500       6.334       6.212       6.114       5.987       5.852       5.753    
        5.655       5.545       5.443       5.334       5.214       5.092       4.928       4.667       4.382       4.049    
        3.672       3.195       2.502       1.876       1.450       1.169      0.9092      0.6282      0.3103       0.000    
  14    10.00       9.934       9.812       9.664       9.533       9.438       9.385       9.324       9.242       9.126    
        8.965       8.817       8.680       8.542       8.353       8.124       7.922       7.698       7.465       7.226    
        7.009       6.811       6.628       6.461       6.320       6.235       6.123       5.979       5.854       5.766    
        5.684       5.579       5.482       5.372       5.257       5.152       4.958       4.687       4.381       3.966    
        3.522       2.963       2.429       1.970       1.544       1.214      0.9254      0.6289      0.2800       0.000    
  15    10.00       9.877       9.743       9.612       9.508       9.435       9.377       9.320       9.240       9.134    
        8.993       8.848       8.717       8.530       8.316       8.102       7.876       7.648       7.382       7.133    
        6.942       6.761       6.589       6.448       6.334       6.233       6.118       5.973       5.864       5.787    
        5.703       5.604       5.518       5.412       5.294       5.176       4.970       4.706       4.323       3.874    
        3.414       2.908       2.473       1.998       1.638       1.286      0.9368      0.6227      0.2553       0.000    
  16    10.00       9.858       9.713       9.594       9.504       9.438       9.380       9.327       9.251       9.142    
        9.012       8.876       8.722       8.495       8.269       8.095       7.879       7.580       7.288       7.062    
        6.869       6.718       6.590       6.461       6.340       6.239       6.118       5.986       5.883       5.795    
        5.721       5.634       5.531       5.432       5.322       5.185       4.991       4.671       4.252       3.840    
        3.442       2.950       2.458       2.038       1.698       1.328      0.9336      0.5578      0.2099       0.000    
  17    10.00       9.840       9.695       9.599       9.520       9.454       9.396       9.337       9.256       9.155    
        9.037       8.872       8.668       8.432       8.245       8.085       7.841       7.523       7.228       7.016    
        6.854       6.700       6.569       6.460       6.350       6.239       6.121       6.011       5.908       5.817    
        5.751       5.661       5.541       5.431       5.319       5.172       4.943       4.664       4.315       3.874    
        3.414       2.893       2.437       2.065       1.717       1.338      0.9533      0.5810      0.2455       0.000    
  18    10.00       9.831       9.695       9.613       9.542       9.478       9.421       9.351       9.271       9.164    
        9.026       8.836       8.614       8.417       8.237       8.018       7.748       7.474       7.221       7.019    
        6.836       6.656       6.540       6.453       6.352       6.238       6.138       6.037       5.952       5.862    
        5.780       5.682       5.548       5.418       5.297       5.135       4.908       4.673       4.365       3.951    
        3.348       2.793       2.421       2.067       1.770       1.371      0.9473      0.5693      0.2451       0.000    
  19    10.00       9.839       9.726       9.642       9.566       9.502       9.435       9.370       9.297       9.175    
        9.013       8.814       8.596       8.383       8.158       7.931       7.688       7.435       7.199       6.995    
        6.802       6.633       6.537       6.457       6.346       6.231       6.135       6.047       5.988       5.914    
        5.818       5.696       5.536       5.396       5.281       5.145       4.918       4.652       4.338       3.853    
        3.248       2.777       2.405       2.057       1.725       1.314      0.9093      0.5655      0.2664       0.000    
  20    10.00       9.849       9.752       9.678       9.605       9.529       9.451       9.381       9.307       9.184    
        9.009       8.804       8.555       8.286       8.038       7.860       7.627       7.369       7.169       6.977    
        6.807       6.660       6.545       6.445       6.325       6.227       6.129       6.049       5.997       5.942    
        5.861       5.698       5.521       5.403       5.280       5.127       4.867       4.596       4.240       3.701    
        3.180       2.802       2.372       1.976       1.616       1.212      0.9116      0.5613      0.2488       0.000    
  21    10.00       9.871       9.784       9.710       9.630       9.557       9.470       9.395       9.315       9.178    
        8.991       8.743       8.441       8.136       7.914       7.759       7.553       7.370       7.187       6.989    
        6.825       6.679       6.544       6.398       6.285       6.212       6.116       6.045       6.002       5.943    
        5.849       5.696       5.541       5.424       5.284       5.058       4.793       4.555       4.042       3.489    
        3.105       2.701       2.264       1.897       1.516       1.163      0.8252      0.4944      0.2483       0.000    
  22    10.00       9.899       9.808       9.727       9.649       9.581       9.483       9.385       9.293       9.153    
        8.929       8.624       8.293       8.016       7.831       7.675       7.524       7.395       7.212       7.029    
        6.871       6.696       6.497       6.315       6.220       6.120       6.059       6.037       5.983       5.914    
        5.823       5.701       5.573       5.445       5.282       5.016       4.732       4.312       3.746       3.397    
        2.988       2.555       2.165       1.813       1.489       1.070      0.7159      0.4740      0.2664       0.000    
  23    10.00       9.900       9.813       9.740       9.658       9.568       9.457       9.369       9.289       9.114    
        8.841       8.519       8.221       7.983       7.797       7.668       7.529       7.373       7.209       7.072    
        6.886       6.650       6.436       6.234       5.947       5.917       5.981       5.978       5.933       5.887    
        5.800       5.707       5.616       5.460       5.252       4.954       4.547       4.072       3.618       3.199    
        2.815       2.459       2.086       1.807       1.397      0.9724      0.6963      0.4558      0.2366       0.000    
  24    10.00       9.922       9.823       9.727       9.633       9.529       9.430       9.355       9.266       9.060    
        8.751       8.449       8.204       7.999       7.822       7.655       7.492       7.356       7.229       7.080    
        6.874       6.644       6.393       5.864       5.139       5.531       5.812       5.888       5.893       5.847    
        5.772       5.715       5.619       5.429       5.201       4.836       4.383       3.983       3.481       3.038    
        2.739       2.398       2.045       1.689       1.250      0.9021      0.6698      0.4269      0.1883       0.000    
  25    10.00       9.915       9.800       9.683       9.573       9.480       9.404       9.329       9.219       9.005    
        8.681       8.401       8.215       8.023       7.820       7.650       7.499       7.382       7.268       7.087    
        6.855       6.629       6.227       5.244       2.682       5.078       5.627       5.827       5.856       5.818    
        5.768       5.706       5.561       5.357       5.128       4.747       4.267       3.808       3.400       3.017    
        2.674       2.304       1.903       1.528       1.112      0.8285      0.6672      0.4151      0.1538       0.000    
  26    10.00       9.893       9.747       9.615       9.527       9.451       9.377       9.284       9.153       8.889    
        8.589       8.395       8.218       8.027       7.837       7.674       7.533       7.416       7.274       7.081    
        6.875       6.633       6.284       5.784       5.226       5.497       5.755       5.851       5.851       5.808    
        5.749       5.644       5.485       5.287       5.036       4.627       4.117       3.744       3.409       2.992    
        2.631       2.213       1.752       1.351       1.011      0.8111      0.6313      0.3701      0.1575       0.000    
  27    10.00       9.870       9.714       9.591       9.517       9.418       9.320       9.203       9.028       8.779    
        8.569       8.398       8.217       8.031       7.844       7.714       7.614       7.452       7.265       7.060    
        6.874       6.699       6.433       6.136       5.866       5.869       5.901       5.895       5.852       5.792    
        5.691       5.562       5.423       5.214       4.931       4.501       4.101       3.768       3.377       2.984    
        2.609       2.104       1.578       1.202      0.9653      0.7981      0.6005      0.3914      0.1887       0.000    
  28    10.00       9.853       9.738       9.600       9.474       9.353       9.245       9.108       8.935       8.743    
        8.570       8.415       8.234       8.026       7.860       7.754       7.640       7.454       7.230       7.038    
        6.905       6.769       6.563       6.349       6.170       6.066       5.991       5.924       5.840       5.727    
        5.607       5.513       5.361       5.131       4.810       4.441       4.128       3.743       3.339       2.945    
        2.490       2.016       1.494       1.120      0.9548      0.7951      0.6192      0.4088      0.1895       0.000    
  29    10.00       9.858       9.715       9.569       9.417       9.301       9.179       9.027       8.882       8.730    
        8.575       8.420       8.241       8.062       7.919       7.790       7.632       7.419       7.213       7.061    
        6.948       6.822       6.643       6.433       6.269       6.152       6.034       5.909       5.781       5.657    
        5.560       5.443       5.289       5.046       4.716       4.417       4.136       3.779       3.330       2.833    
        2.419       1.915       1.396       1.104      0.9579      0.8008      0.6146      0.3994      0.1986       0.000    
  30    10.00       9.837       9.693       9.517       9.364       9.257       9.127       8.993       8.880       8.742    
        8.581       8.410       8.244       8.099       7.967       7.816       7.608       7.408       7.244       7.101    
        7.000       6.867       6.678       6.472       6.293       6.150       6.004       5.850       5.728       5.612    
        5.496       5.383       5.219       4.951       4.678       4.449       4.168       3.709       3.165       2.670    
        2.257       1.799       1.405       1.134      0.9799      0.8028      0.6038      0.4187      0.2053       0.000    
  31    10.00       9.815       9.648       9.481       9.343       9.232       9.108       8.989       8.875       8.738    
        8.576       8.400       8.255       8.130       7.998       7.821       7.613       7.442       7.311       7.181    
        7.058       6.882       6.669       6.488       6.284       6.089       5.930       5.798       5.691       5.568    
        5.443       5.318       5.138       4.906       4.661       4.419       3.994       3.504       3.061       2.583    
        2.195       1.740       1.358       1.163      0.9983      0.8315      0.6244      0.4193      0.1987       0.000    
  32    10.00       9.800       9.621       9.478       9.361       9.250       9.120       8.982       8.843       8.712    
        8.549       8.396       8.263       8.122       7.994       7.837       7.673       7.541       7.396       7.243    
        7.096       6.896       6.682       6.497       6.256       6.025       5.876       5.761       5.633       5.488    
        5.361       5.265       5.055       4.812       4.606       4.292       3.791       3.344       2.963       2.530    
        2.080       1.659       1.380       1.230       1.050      0.8389      0.6198      0.3984      0.1987       0.000    
  33    10.00       9.794       9.641       9.525       9.408       9.277       9.118       8.964       8.813       8.662    
        8.525       8.395       8.262       8.124       7.981       7.856       7.731       7.608       7.474       7.303    
        7.109       6.917       6.739       6.504       6.215       5.971       5.812       5.694       5.552       5.407    
        5.298       5.165       4.961       4.756       4.480       4.073       3.585       3.218       2.858       2.360    
        1.956       1.683       1.461       1.283       1.077      0.8556      0.5871      0.3506      0.1579       0.000    
  34    10.00       9.812       9.686       9.577       9.446       9.284       9.116       8.933       8.765       8.637    
        8.516       8.396       8.274       8.129       7.998       7.874       7.760       7.657       7.515       7.320    
        7.132       6.965       6.772       6.504       6.187       5.915       5.743       5.609       5.481       5.334    
        5.213       5.075       4.900       4.657       4.337       3.851       3.393       3.077       2.659       2.227    
        1.981       1.802       1.588       1.358       1.088      0.7759      0.4744      0.2807      0.1163       0.000    
  35    10.00       9.843       9.729       9.618       9.476       9.294       9.100       8.895       8.736       8.626    
        8.544       8.421       8.281       8.123       7.981       7.889       7.803       7.687       7.529       7.342    
        7.163       6.990       6.799       6.470       6.105       5.846       5.669       5.544       5.410       5.254    
        5.145       5.004       4.811       4.501       4.019       3.539       3.247       2.930       2.511       2.256    
        2.086       1.882       1.667       1.443       1.101      0.6597      0.3642      0.2393      0.1214       0.000    
  36    10.00       9.861       9.762       9.655       9.503       9.284       9.046       8.855       8.741       8.657    
        8.542       8.397       8.265       8.122       7.996       7.904       7.815       7.703       7.575       7.393    
        7.201       7.017       6.759       6.388       6.042       5.787       5.625       5.481       5.311       5.183    
        5.053       4.887       4.587       4.144       3.724       3.413       3.150       2.822       2.497       2.331    
        2.158       1.975       1.758       1.469       1.004      0.5551      0.3419      0.2187      0.1124       0.000    
  37    10.00       9.875       9.798       9.682       9.479       9.238       9.028       8.878       8.784       8.681    
        8.528       8.372       8.256       8.131       8.009       7.917       7.829       7.723       7.581       7.412    
        7.254       7.037       6.698       6.345       6.003       5.715       5.510       5.332       5.178       5.058    
        4.917       4.673       4.240       3.863       3.591       3.330       3.066       2.814       2.586       2.401    
        2.235       2.030       1.783       1.403      0.9189      0.5347      0.3200      0.2034      0.1020       0.000    
  38    10.00       9.893       9.800       9.672       9.461       9.212       9.033       8.922       8.822       8.697    
        8.533       8.369       8.254       8.136       8.012       7.915       7.835       7.738       7.590       7.445    
        7.290       7.012       6.617       6.233       5.872       5.582       5.352       5.158       5.021       4.906    
        4.735       4.340       3.984       3.768       3.509       3.259       3.073       2.867       2.660       2.483    
        2.289       2.010       1.698       1.286      0.8062      0.5118      0.3599      0.2242      0.1006       0.000    
  39    10.00       9.892       9.785       9.651       9.446       9.221       9.059       8.959       8.832       8.692    
        8.558       8.392       8.259       8.144       8.022       7.917       7.824       7.722       7.602       7.467    
        7.263       6.950       6.525       6.089       5.720       5.442       5.177       4.974       4.887       4.767    
        4.473       4.104       3.908       3.668       3.433       3.263       3.115       2.928       2.729       2.565    
        2.283       1.890       1.524       1.081      0.7184      0.5542      0.4124      0.2685      0.1381       0.000    
  40    10.00       9.882       9.788       9.651       9.462       9.272       9.113       8.978       8.828       8.699    
        8.597       8.430       8.260       8.141       8.028       7.903       7.798       7.719       7.609       7.425    
        7.179       6.812       6.380       5.968       5.600       5.303       4.990       4.838       4.757       4.595    
        4.335       4.088       3.827       3.588       3.430       3.288       3.148       2.976       2.794       2.579    
        2.199       1.771       1.376       1.018      0.7704      0.6013      0.4601      0.3247      0.1594       0.000    
  41    10.00       9.898       9.822       9.688       9.493       9.294       9.140       9.018       8.869       8.715    
        8.591       8.433       8.272       8.160       8.023       7.874       7.787       7.695       7.540       7.330    
        7.072       6.711       6.277       5.877       5.506       5.102       4.821       4.746       4.651       4.536    
        4.342       4.043       3.788       3.606       3.453       3.329       3.177       3.014       2.826       2.491    
        2.048       1.633       1.291       1.028      0.8133      0.6564      0.5055      0.3571      0.1880       0.000    
  42    10.00       9.923       9.839       9.709       9.539       9.347       9.172       9.046       8.909       8.734    
        8.573       8.421       8.281       8.172       8.023       7.867       7.756       7.628       7.456       7.215    
        6.916       6.521       6.141       5.739       5.251       4.903       4.771       4.709       4.630       4.511    
        4.284       4.026       3.793       3.613       3.492       3.361       3.227       3.051       2.752       2.309    
        1.923       1.615       1.319       1.022      0.8233      0.6900      0.5453      0.3716      0.2062       0.000    
  43    10.00       9.939       9.848       9.713       9.544       9.383       9.227       9.084       8.911       8.726    
        8.577       8.422       8.283       8.179       8.037       7.853       7.702       7.555       7.321       7.017    
        6.730       6.353       6.006       5.542       5.085       4.864       4.762       4.690       4.617       4.492    
        4.277       4.045       3.824       3.652       3.537       3.408       3.232       2.981       2.545       2.155    
        1.916       1.644       1.332       1.025      0.8146      0.6914      0.5800      0.4017      0.1882       0.000    
  44    10.00       9.931       9.853       9.712       9.557       9.441       9.281       9.082       8.885       8.731    
        8.581       8.422       8.299       8.187       8.017       7.814       7.638       7.463       7.188       6.891    
        6.552       6.181       5.813       5.353       5.015       4.853       4.764       4.704       4.624       4.465    
        4.250       4.066       3.873       3.714       3.597       3.416       3.184       2.825       2.386       2.131    
        1.912       1.628       1.318       1.038      0.8240      0.6930      0.5802      0.3934      0.1733       0.000    
  45    10.00       9.917       9.822       9.708       9.595       9.443       9.272       9.080       8.885       8.728    
        8.570       8.426       8.316       8.185       7.995       7.776       7.578       7.381       7.086       6.740    
        6.354       5.966       5.573       5.239       5.008       4.871       4.785       4.720       4.616       4.488    
        4.303       4.094       3.923       3.758       3.588       3.398       3.145       2.766       2.387       2.089    
        1.841       1.575       1.286       1.036      0.8494      0.7409      0.5725      0.3408      0.1553       0.000    
  46    10.00       9.899       9.801       9.709       9.579       9.404       9.237       9.080       8.886       8.717    
        8.576       8.443       8.330       8.170       7.967       7.770       7.561       7.302       6.987       6.613    
        6.163       5.781       5.470       5.218       5.043       4.921       4.814       4.724       4.642       4.500    
        4.303       4.122       3.953       3.762       3.594       3.416       3.132       2.695       2.300       2.035    
        1.803       1.548       1.278       1.058      0.9142      0.7746      0.5189      0.2551      0.1109       0.000    
  47    10.00       9.892       9.792       9.665       9.513       9.369       9.226       9.055       8.877       8.727    
        8.597       8.477       8.315       8.141       7.959       7.767       7.534       7.234       6.941       6.488    
        6.003       5.707       5.441       5.244       5.081       4.961       4.851       4.743       4.648       4.500    
        4.294       4.115       3.943       3.764       3.621       3.404       3.010       2.620       2.291       2.010    
        1.807       1.567       1.326       1.115      0.9360      0.7103      0.4267      0.2230      9.2888E-02   0.000    
  48    10.00       9.880       9.759       9.623       9.486       9.358       9.213       9.056       8.891       8.743    
        8.611       8.468       8.290       8.111       7.932       7.741       7.517       7.235       6.871       6.423    
        6.007       5.703       5.445       5.264       5.130       4.981       4.869       4.779       4.661       4.460    
        4.258       4.083       3.926       3.795       3.605       3.320       2.947       2.597       2.285       2.039    
        1.820       1.591       1.374       1.135      0.8676      0.5769      0.3646      0.2162      9.7697E-02   0.000    
  49    10.00       9.869       9.737       9.604       9.491       9.359       9.205       9.051       8.918       8.763    
        8.605       8.424       8.249       8.099       7.895       7.709       7.522       7.207       6.848       6.492    
        6.052       5.714       5.457       5.298       5.140       4.980       4.893       4.805       4.614       4.372    
        4.200       4.061       3.949       3.777       3.557       3.304       2.931       2.582       2.338       2.076    
        1.818       1.608       1.377       1.096      0.7680      0.5142      0.3646      0.2353      0.1207       0.000    
  50    10.00       9.874       9.742       9.606       9.483       9.353       9.216       9.064       8.924       8.786    
        8.591       8.402       8.242       8.040       7.833       7.691       7.514       7.269       6.913       6.561    
        6.113       5.687       5.463       5.302       5.137       5.006       4.901       4.783       4.557       4.328    
        4.186       4.072       3.940       3.762       3.559       3.317       2.941       2.583       2.346       2.109    
        1.865       1.600       1.340       1.039      0.7159      0.5262      0.3923      0.2659      0.1604       0.000    

 HEAD WILL BE SAVED ON UNIT   51 AT END OF TIME STEP   2, STRESS PERIOD    2

 DRAWDOWN WILL BE SAVED ON UNIT   52 AT END OF TIME STEP   2, STRESS PERIOD    2
1
  VOLUMETRIC BUDGET FOR ENTIRE MODEL AT END OF TIME STEP  2 IN STRESS PERIOD   2
  ------------------------------------------------------------------------------

     CUMULATIVE VOLUMES      L**3       RATES FOR THIS TIME STEP      L**3/T
     ------------------                 ------------------------

           IN:                                      IN:
           ---                                      ---
             STORAGE =        1000.0052               STORAGE =         500.0022
       CONSTANT HEAD =        1117.3774         CONSTANT HEAD =         372.4592
               WELLS =           0.0000                 WELLS =           0.0000

            TOTAL IN =        2117.3826              TOTAL IN =         872.4614

          OUT:                                     OUT:
          ----                                     ----
             STORAGE =       4.9951E-03               STORAGE =       2.1979E-03
       CONSTANT HEAD =        1117.3772         CONSTANT HEAD =         372.4591
               WELLS =        1000.0000                 WELLS =         500.0000

           TOTAL OUT =        2117.3821             TOTAL OUT =         872.4613

            IN - OUT =       4.8828E-04              IN - OUT =       1.2207E-04

 PERCENT DISCREPANCY =           0.00     PERCENT DISCREPANCY =           0.00






          TIME SUMMARY AT END OF TIME STEP   2 IN STRESS PERIOD    2
                    SECONDS     MINUTES      HOURS       DAYS        YEARS
                    -----------------------------------------------------------
   TIME STEP LENGTH  86400.      1440.0      24.000      1.0000     2.73785E-03
 STRESS PERIOD TIME 1.72800E+05  2880.0      48.000      2.0000     5.47570E-03
         TOTAL TIME 2.59200E+05  4320.0      72.000      3.0000     8.21355E-03
1
 
 SOLVING FOR HEAD 

 OUTPUT CONTROL FOR STRESS PERIOD    2   TIME STEP   3
    SAVE HEAD FOR ALL LAYERS
    SAVE DRAWDOWN FOR ALL LAYERS
    SAVE BUDGET
    PRINT HEAD FOR ALL LAYERS
    PRINT BUDGET
 UBDSV1 SAVING "         STORAGE" ON UNIT  53 AT TIME STEP  3, STRESS PERIOD   2
 UBDSV2 SAVING "   CONSTANT HEAD" ON UNIT  53 AT TIME STEP  3, STRESS PERIOD   2
 UBDSV1 SAVING "FLOW RIGHT FACE " ON UNIT  53 AT TIME STEP  3, STRESS PERIOD   2
 UBDSV1 SAVING "FLOW FRONT FACE " ON UNIT  53 AT TIME STEP  3, STRESS PERIOD   2
1
              HEAD IN LAYER   1 AT END OF TIME STEP   3 IN STRESS PERIOD    2
  ---------------------------------------------------------------------------

            1           2           3           4           5           6           7           8           9          10
           11          12          13          14          15          16          17          18          19          20
           21          22          23          24          25          26          27          28          29          30
           31          32          33          34          35          36          37          38          39          40
           41          42          43          44          45          46          47          48          49          50
 ........................................................................................................................
   1    10.00       9.953       9.906       9.851       9.808       9.771       9.722       9.655       9.581       9.513    
        9.362       9.174       9.035       8.881       8.716       8.549       8.395       8.217       7.979       7.743    
        7.582       7.397       7.154       6.907       6.688       6.495       6.222       5.973       5.797       5.612    
        5.451       5.345       5.228       5.093       4.964       4.804       4.632       4.400       4.135       3.846    
        3.475       3.099       2.607       2.072       1.670       1.381       1.165      0.9189      0.5394       0.000    
   2    10.00       9.948       9.898       9.852       9.815       9.779       9.725       9.656       9.588       9.496    
        9.350       9.181       9.025       8.884       8.732       8.561       8.377       8.195       7.973       7.735    
        7.559       7.408       7.149       6.883       6.688       6.471       6.208       5.970       5.770       5.595    
        5.458       5.359       5.259       5.114       4.964       4.805       4.607       4.391       4.134       3.805    
        3.458       3.137       2.620       2.088       1.732       1.474       1.225      0.9490      0.5728       0.000    
   3    10.00       9.940       9.898       9.866       9.831       9.794       9.735       9.653       9.571       9.471    
        9.338       9.189       9.039       8.897       8.716       8.502       8.324       8.166       7.963       7.754    
        7.573       7.359       7.106       6.872       6.660       6.418       6.170       5.936       5.729       5.597    
        5.481       5.384       5.283       5.124       4.966       4.797       4.602       4.360       4.074       3.821    
        3.512       3.074       2.570       2.187       1.883       1.582       1.276      0.9619      0.5428       0.000    
   4    10.00       9.940       9.903       9.874       9.850       9.811       9.744       9.649       9.552       9.453    
        9.326       9.192       9.042       8.865       8.644       8.446       8.318       8.141       7.945       7.782    
        7.537       7.268       7.046       6.839       6.634       6.348       6.075       5.890       5.744       5.627    
        5.520       5.418       5.309       5.125       4.930       4.778       4.572       4.322       4.075       3.851    
        3.500       3.017       2.635       2.311       1.984       1.642       1.273      0.9056      0.4639       0.000    
   5    10.00       9.945       9.911       9.882       9.860       9.820       9.749       9.642       9.533       9.434    
        9.327       9.190       8.999       8.792       8.605       8.448       8.291       8.126       7.942       7.715    
        7.435       7.213       7.029       6.818       6.561       6.267       6.040       5.905       5.784       5.667    
        5.546       5.421       5.297       5.122       4.923       4.739       4.553       4.353       4.126       3.829    
        3.430       3.060       2.732       2.404       2.046       1.648       1.184      0.7630      0.3950       0.000    
   6    10.00       9.954       9.921       9.893       9.863       9.819       9.743       9.628       9.533       9.428    
        9.308       9.139       8.931       8.759       8.588       8.411       8.252       8.105       7.901       7.647    
        7.399       7.187       7.000       6.744       6.467       6.242       6.056       5.927       5.799       5.678    
        5.570       5.432       5.276       5.096       4.903       4.743       4.578       4.395       4.154       3.833    
        3.481       3.121       2.784       2.453       2.064       1.582       1.082      0.7177      0.3694       0.000    
   7    10.00       9.960       9.931       9.902       9.870       9.817       9.716       9.605       9.507       9.378    
        9.256       9.078       8.890       8.714       8.541       8.364       8.208       8.076       7.845       7.575    
        7.354       7.143       6.936       6.689       6.452       6.245       6.080       5.936       5.801       5.700    
        5.588       5.440       5.272       5.084       4.914       4.771       4.619       4.427       4.177       3.881    
        3.528       3.157       2.806       2.440       2.055       1.549       1.036      0.6838      0.3236       0.000    
   8    10.00       9.967       9.941       9.909       9.872       9.787       9.665       9.560       9.439       9.316    
        9.182       9.002       8.844       8.667       8.475       8.305       8.172       8.016       7.803       7.543    
        7.291       7.097       6.927       6.677       6.436       6.252       6.068       5.918       5.819       5.724    
        5.592       5.443       5.298       5.126       4.940       4.787       4.670       4.519       4.268       3.923    
        3.534       3.202       2.873       2.445       2.016       1.450      0.9598      0.6700      0.3100       0.000    
   9    10.00       9.974       9.945       9.909       9.847       9.736       9.607       9.486       9.380       9.254    
        9.097       8.937       8.782       8.615       8.419       8.261       8.138       7.959       7.752       7.495    
        7.275       7.086       6.858       6.612       6.410       6.248       6.061       5.926       5.827       5.722    
        5.599       5.461       5.322       5.170       5.006       4.851       4.722       4.585       4.322       3.946    
        3.585       3.286       2.937       2.522       1.886       1.248      0.9145      0.5667      0.2162       0.000    
  10    10.00       9.974       9.944       9.894       9.799       9.668       9.526       9.432       9.332       9.185    
        9.048       8.892       8.738       8.561       8.384       8.242       8.081       7.898       7.685       7.479    
        7.267       6.994       6.765       6.570       6.396       6.252       6.081       5.936       5.840       5.741    
        5.606       5.458       5.331       5.186       5.039       4.927       4.793       4.630       4.327       3.951    
        3.665       3.399       2.996       2.371       1.635       1.173      0.8303      0.5068      0.2528       0.000    
  11    10.00       9.974       9.935       9.857       9.751       9.605       9.480       9.402       9.284       9.159    
        9.028       8.866       8.684       8.497       8.349       8.201       8.055       7.861       7.659       7.459    
        7.177       6.917       6.730       6.553       6.385       6.229       6.075       5.951       5.862       5.766    
        5.616       5.472       5.357       5.222       5.091       4.963       4.811       4.633       4.346       4.039    
        3.734       3.386       2.948       2.259       1.569       1.103      0.7784      0.5903      0.3260       0.000    
  12    10.00       9.973       9.917       9.818       9.680       9.537       9.438       9.360       9.258       9.145    
        9.004       8.833       8.653       8.486       8.336       8.175       8.009       7.819       7.620       7.364    
        7.095       6.896       6.715       6.538       6.359       6.204       6.086       5.979       5.871       5.760    
        5.627       5.504       5.398       5.281       5.158       5.026       4.855       4.632       4.362       4.081    
        3.753       3.373       2.773       2.000       1.415       1.087      0.8646      0.6266      0.3570       0.000    
  13    10.00       9.964       9.878       9.743       9.600       9.478       9.399       9.331       9.245       9.138    
        8.991       8.815       8.649       8.517       8.343       8.147       7.957       7.755       7.541       7.301    
        7.069       6.861       6.674       6.499       6.333       6.211       6.113       5.986       5.851       5.752    
        5.654       5.544       5.442       5.333       5.214       5.091       4.928       4.667       4.382       4.049    
        3.672       3.195       2.502       1.876       1.450       1.169      0.9092      0.6282      0.3103       0.000    
  14    10.00       9.934       9.812       9.664       9.533       9.438       9.385       9.324       9.242       9.126    
        8.965       8.817       8.680       8.542       8.353       8.124       7.922       7.698       7.465       7.225    
        7.009       6.810       6.626       6.459       6.318       6.233       6.122       5.977       5.853       5.764    
        5.683       5.578       5.481       5.372       5.257       5.151       4.958       4.687       4.381       3.966    
        3.522       2.963       2.429       1.970       1.544       1.214      0.9254      0.6289      0.2800       0.000    
  15    10.00       9.877       9.743       9.612       9.508       9.435       9.377       9.320       9.240       9.134    
        8.993       8.848       8.717       8.530       8.316       8.102       7.876       7.648       7.382       7.133    
        6.941       6.759       6.587       6.445       6.331       6.230       6.115       5.971       5.861       5.784    
        5.701       5.603       5.517       5.411       5.293       5.176       4.970       4.706       4.323       3.874    
        3.414       2.908       2.473       1.998       1.638       1.286      0.9368      0.6227      0.2553       0.000    
  16    10.00       9.858       9.713       9.594       9.504       9.438       9.380       9.327       9.251       9.142    
        9.012       8.876       8.722       8.495       8.269       8.095       7.879       7.580       7.287       7.061    
        6.866       6.714       6.585       6.456       6.335       6.234       6.113       5.982       5.879       5.792    
        5.718       5.633       5.530       5.431       5.321       5.185       4.991       4.671       4.252       3.840    
        3.442       2.950       2.458       2.038       1.698       1.328      0.9336      0.5578      0.2099       0.000    
  17    10.00       9.840       9.695       9.599       9.520       9.454       9.396       9.337       9.256       9.155    
        9.037       8.872       8.668       8.432       8.245       8.085       7.840       7.522       7.227       7.014    
        6.851       6.694       6.560       6.450       6.340       6.229       6.111       6.003       5.901       5.811    
        5.747       5.659       5.539       5.430       5.319       5.172       4.943       4.664       4.315       3.874    
        3.414       2.893       2.437       2.065       1.717       1.338      0.9533      0.5810      0.2455       0.000    
  18    10.00       9.831       9.695       9.613       9.542       9.478       9.421       9.351       9.271       9.164    
        9.026       8.836       8.614       8.417       8.237       8.018       7.748       7.473       7.219       7.015    
        6.829       6.644       6.524       6.435       6.334       6.220       6.121       6.023       5.940       5.854    
        5.775       5.679       5.546       5.417       5.296       5.135       4.908       4.672       4.365       3.951    
        3.348       2.793       2.421       2.067       1.770       1.371      0.9473      0.5693      0.2451       0.000    
  19    10.00       9.839       9.726       9.642       9.566       9.502       9.435       9.370       9.297       9.175    
        9.013       8.814       8.596       8.383       8.157       7.931       7.687       7.433       7.195       6.988    
        6.790       6.614       6.514       6.432       6.318       6.204       6.112       6.026       5.971       5.902    
        5.810       5.691       5.534       5.395       5.281       5.145       4.917       4.652       4.338       3.853    
        3.248       2.777       2.405       2.057       1.725       1.314      0.9093      0.5655      0.2664       0.000    
  20    10.00       9.849       9.752       9.678       9.605       9.529       9.451       9.381       9.307       9.184    
        9.009       8.804       8.555       8.286       8.038       7.859       7.625       7.365       7.163       6.966    
        6.789       6.636       6.514       6.408       6.282       6.187       6.096       6.022       5.975       5.925    
        5.850       5.693       5.519       5.402       5.279       5.126       4.866       4.596       4.240       3.701    
        3.180       2.802       2.372       1.976       1.616       1.212      0.9116      0.5613      0.2488       0.000    
  21    10.00       9.871       9.784       9.710       9.630       9.557       9.470       9.395       9.315       9.178    
        8.991       8.743       8.440       8.136       7.914       7.758       7.551       7.365       7.179       6.974    
        6.803       6.647       6.502       6.336       6.218       6.151       6.062       6.007       5.973       5.922    
        5.836       5.690       5.538       5.422       5.283       5.057       4.792       4.555       4.042       3.489    
        3.105       2.701       2.264       1.897       1.516       1.163      0.8252      0.4944      0.2483       0.000    
  22    10.00       9.899       9.808       9.727       9.649       9.581       9.483       9.385       9.293       9.153    
        8.929       8.624       8.293       8.015       7.830       7.673       7.520       7.390       7.202       7.010    
        6.842       6.647       6.419       6.214       6.114       6.017       5.973       5.976       5.942       5.887    
        5.807       5.692       5.569       5.443       5.281       5.015       4.732       4.312       3.746       3.397    
        2.988       2.555       2.165       1.813       1.489       1.070      0.7159      0.4740      0.2664       0.000    
  23    10.00       9.900       9.813       9.740       9.658       9.568       9.457       9.369       9.289       9.114    
        8.841       8.519       8.221       7.983       7.796       7.666       7.525       7.365       7.195       7.049    
        6.843       6.569       6.317       6.088       5.763       5.746       5.855       5.890       5.875       5.850    
        5.778       5.694       5.609       5.457       5.251       4.954       4.547       4.072       3.618       3.199    
        2.815       2.459       2.086       1.807       1.397      0.9724      0.6963      0.4558      0.2366       0.000    
  24    10.00       9.922       9.823       9.727       9.633       9.529       9.430       9.355       9.266       9.060    
        8.751       8.449       8.204       7.998       7.821       7.653       7.487       7.347       7.214       7.052    
        6.818       6.546       6.244       5.615       4.824       5.269       5.632       5.774       5.815       5.802    
        5.746       5.697       5.610       5.426       5.200       4.836       4.383       3.983       3.481       3.038    
        2.739       2.398       2.045       1.689       1.250      0.9021      0.6698      0.4269      0.1883       0.000    
  25    10.00       9.915       9.800       9.683       9.573       9.480       9.404       9.329       9.219       9.005    
        8.681       8.401       8.214       8.023       7.819       7.648       7.495       7.374       7.254       7.058    
        6.792       6.520       6.030       4.911       2.247       4.772       5.412       5.693       5.774       5.769    
        5.737       5.686       5.552       5.354       5.127       4.747       4.267       3.808       3.400       3.017    
        2.674       2.304       1.903       1.528       1.112      0.8285      0.6672      0.4151      0.1538       0.000    
  26    10.00       9.893       9.747       9.615       9.527       9.451       9.377       9.284       9.153       8.889    
        8.589       8.395       8.217       8.026       7.836       7.672       7.529       7.410       7.262       7.054    
        6.818       6.525       6.101       5.522       4.921       5.229       5.564       5.727       5.772       5.759    
        5.718       5.627       5.478       5.285       5.035       4.627       4.117       3.744       3.409       2.992    
        2.631       2.213       1.752       1.351       1.011      0.8111      0.6313      0.3701      0.1575       0.000    
  27    10.00       9.870       9.714       9.591       9.517       9.418       9.320       9.203       9.028       8.779    
        8.569       8.398       8.217       8.031       7.843       7.712       7.612       7.447       7.254       7.035    
        6.825       6.617       6.297       5.950       5.649       5.677       5.756       5.793       5.785       5.747    
        5.667       5.550       5.417       5.212       4.930       4.501       4.101       3.768       3.377       2.984    
        2.609       2.104       1.578       1.202      0.9653      0.7981      0.6005      0.3914      0.1887       0.000    
  28    10.00       9.853       9.738       9.600       9.474       9.353       9.245       9.108       8.935       8.742    
        8.570       8.415       8.234       8.025       7.859       7.753       7.638       7.449       7.218       7.012    
        6.865       6.709       6.470       6.225       6.036       5.944       5.889       5.846       5.789       5.698    
        5.592       5.503       5.356       5.130       4.809       4.441       4.128       3.743       3.339       2.945    
        2.490       2.016       1.494       1.120      0.9548      0.7951      0.6192      0.4088      0.1895       0.000    
  29    10.00       9.858       9.715       9.569       9.417       9.301       9.179       9.027       8.882       8.730    
        8.575       8.420       8.241       8.062       7.918       7.789       7.630       7.414       7.201       7.040    
        6.916       6.778       6.581       6.354       6.186       6.073       5.967       5.860       5.751       5.640    
        5.549       5.436       5.285       5.044       4.716       4.417       4.136       3.779       3.330       2.833    
        2.419       1.915       1.396       1.104      0.9579      0.8008      0.6146      0.3994      0.1986       0.000    
  30    10.00       9.837       9.693       9.517       9.364       9.257       9.127       8.993       8.880       8.742    
        8.581       8.410       8.244       8.099       7.967       7.815       7.606       7.402       7.233       7.084    
        6.976       6.836       6.638       6.424       6.238       6.101       5.966       5.824       5.711       5.600    
        5.489       5.379       5.217       4.950       4.677       4.449       4.168       3.709       3.165       2.670    
        2.257       1.799       1.405       1.134      0.9799      0.8028      0.6038      0.4187      0.2053       0.000    
  31    10.00       9.815       9.648       9.481       9.343       9.232       9.108       8.989       8.875       8.738    
        8.576       8.400       8.254       8.129       7.998       7.820       7.610       7.437       7.304       7.170    
        7.044       6.864       6.646       6.461       6.254       6.061       5.910       5.783       5.680       5.561    
        5.438       5.315       5.136       4.906       4.661       4.419       3.994       3.504       3.061       2.583    
        2.195       1.740       1.358       1.163      0.9983      0.8315      0.6244      0.4193      0.1987       0.000    
  32    10.00       9.800       9.621       9.478       9.361       9.250       9.120       8.982       8.843       8.712    
        8.549       8.396       8.263       8.122       7.994       7.837       7.672       7.538       7.392       7.237    
        7.088       6.888       6.671       6.483       6.242       6.010       5.864       5.751       5.626       5.483    
        5.358       5.263       5.054       4.812       4.606       4.291       3.791       3.344       2.963       2.530    
        2.080       1.659       1.380       1.230       1.050      0.8389      0.6198      0.3984      0.1987       0.000    
  33    10.00       9.794       9.641       9.525       9.408       9.277       9.118       8.964       8.813       8.662    
        8.525       8.395       8.262       8.124       7.980       7.856       7.730       7.607       7.472       7.300    
        7.106       6.914       6.734       6.498       6.209       5.964       5.805       5.688       5.548       5.405    
        5.296       5.164       4.960       4.756       4.480       4.073       3.585       3.218       2.858       2.360    
        1.956       1.683       1.461       1.283       1.077      0.8556      0.5871      0.3506      0.1579       0.000    
  34    10.00       9.812       9.686       9.577       9.446       9.284       9.116       8.933       8.765       8.637    
        8.516       8.396       8.274       8.129       7.998       7.873       7.759       7.656       7.513       7.318    
        7.131       6.963       6.769       6.501       6.184       5.912       5.740       5.606       5.479       5.333    
        5.212       5.074       4.900       4.657       4.337       3.851       3.393       3.077       2.659       2.227    
        1.981       1.802       1.588       1.358       1.088      0.7759      0.4744      0.2807      0.1163       0.000    
  35    10.00       9.843       9.729       9.618       9.476       9.294       9.100       8.895       8.736       8.626    
        8.544       8.421       8.281       8.123       7.981       7.889       7.803       7.687       7.528       7.341    
        7.163       6.989       6.797       6.469       6.104       5.845       5.667       5.543       5.409       5.253    
        5.145       5.004       4.811       4.500       4.019       3.539       3.247       2.930       2.511       2.256    
        2.086       1.882       1.667       1.443       1.101      0.6597      0.3642      0.2393      0.1214       0.000    
  36    10.00       9.861       9.762       9.655       9.503       9.284       9.046       8.855       8.741       8.657    
        8.542       8.397       8.265       8.122       7.996       7.904       7.815       7.703       7.575       7.393    
        7.201       7.017       6.759       6.388       6.042       5.787       5.624       5.480       5.310       5.182    
        5.052       4.887       4.587       4.144       3.724       3.413       3.150       2.822       2.497       2.331    
        2.158       1.975       1.758       1.469       1.004      0.5551      0.3419      0.2187      0.1124       0.000    
  37    10.00       9.875       9.798       9.682       9.479       9.238       9.028       8.878       8.784       8.681    
        8.528       8.372       8.256       8.131       8.009       7.917       7.829       7.723       7.581       7.411    
        7.253       7.037       6.698       6.345       6.002       5.715       5.510       5.332       5.178       5.058    
        4.917       4.673       4.240       3.863       3.591       3.330       3.066       2.814       2.586       2.401    
        2.235       2.030       1.783       1.403      0.9189      0.5347      0.3200      0.2034      0.1020       0.000    
  38    10.00       9.893       9.800       9.672       9.461       9.212       9.033       8.922       8.822       8.697    
        8.533       8.369       8.254       8.136       8.011       7.915       7.835       7.738       7.590       7.445    
        7.290       7.012       6.617       6.233       5.872       5.582       5.352       5.158       5.021       4.906    
        4.735       4.340       3.984       3.768       3.509       3.259       3.073       2.867       2.660       2.483    
        2.289       2.010       1.698       1.286      0.8062      0.5118      0.3599      0.2242      0.1006       0.000    
  39    10.00       9.892       9.785       9.651       9.446       9.221       9.059       8.959       8.832       8.692    
        8.558       8.392       8.259       8.144       8.022       7.917       7.824       7.722       7.602       7.467    
        7.263       6.950       6.525       6.089       5.720       5.442       5.177       4.974       4.887       4.767    
        4.473       4.104       3.908       3.668       3.433       3.263       3.115       2.928       2.729       2.565    
        2.283       1.890       1.524       1.081      0.7184      0.5542      0.4124      0.2685      0.1381       0.000    
  40    10.00       9.882       9.788       9.651       9.462       9.272       9.113       8.978       8.828       8.699    
        8.597       8.430       8.260       8.141       8.028       7.903       7.798       7.719       7.609       7.425    
        7.179       6.812       6.380       5.968       5.600       5.303       4.990       4.838       4.757       4.595    
        4.335       4.088       3.827       3.588       3.430       3.288       3.148       2.976       2.794       2.579    
        2.199       1.771       1.376       1.018      0.7704      0.6013      0.4601      0.3247      0.1594       0.000    
  41    10.00       9.898       9.822       9.688       9.493       9.294       9.140       9.018       8.869       8.715    
        8.591       8.433       8.272       8.160       8.023       7.874       7.787       7.695       7.540       7.330    
        7.072       6.711       6.277       5.877       5.506       5.102       4.821       4.746       4.651       4.536    
        4.342       4.043       3.788       3.606       3.453       3.329       3.177       3.014       2.826       2.491    
        2.048       1.633       1.291       1.028      0.8133      0.6564      0.5055      0.3571      0.1880       0.000    
  42    10.00       9.923       9.839       9.709       9.539       9.347       9.172       9.046       8.909       8.734    
        8.573       8.421       8.281       8.172       8.023       7.867       7.756       7.628       7.456       7.215    
        6.916       6.521       6.141       5.739       5.251       4.903       4.771       4.709       4.630       4.511    
        4.284       4.026       3.793       3.613       3.492       3.361       3.227       3.051       2.752       2.309    
        1.923       1.615       1.319       1.022      0.8233      0.6900      0.5453      0.3716      0.2062       0.000    
  43    10.00       9.939       9.848       9.713       9.544       9.383       9.227       9.084       8.911       8.726    
        8.577       8.422       8.283       8.179       8.037       7.853       7.702       7.555       7.321       7.017    
        6.730       6.353       6.006       5.542       5.085       4.864       4.762       4.690       4.617       4.492    
        4.277       4.045       3.824       3.652       3.537       3.408       3.232       2.981       2.545       2.155    
        1.916       1.644       1.332       1.025      0.8146      0.6914      0.5800      0.4017      0.1882       0.000    
  44    10.00       9.931       9.853       9.712       9.557       9.441       9.281       9.082       8.885       8.731    
        8.581       8.422       8.299       8.187       8.017       7.814       7.638       7.463       7.188       6.891    
        6.552       6.181       5.813       5.353       5.015       4.853       4.764       4.704       4.624       4.465    
        4.250       4.066       3.873       3.714       3.597       3.416       3.184       2.825       2.386       2.131    
        1.912       1.628       1.318       1.038      0.8240      0.6930      0.5802      0.3934      0.1733       0.000    
  45    10.00       9.917       9.822       9.708       9.595       9.443       9.272       9.080       8.885       8.728    
        8.570       8.426       8.316       8.185       7.995       7.776       7.578       7.381       7.086       6.740    
        6.354       5.966       5.573       5.239       5.008       4.871       4.785       4.720       4.616       4.488    
        4.303       4.094       3.923       3.758       3.588       3.398       3.145       2.766       2.387       2.089    
        1.841       1.575       1.286       1.036      0.8494      0.7409      0.5725      0.3408      0.1553       0.000    
  46    10.00       9.899       9.801       9.709       9.579       9.404       9.237       9.080       8.886       8.717    
        8.576       8.443       8.330       8.170       7.967       7.770       7.561       7.302       6.987       6.613    
        6.163       5.781       5.470       5.218       5.043       4.921       4.814       4.724       4.642       4.500    
        4.303       4.122       3.953       3.762       3.594       3.416       3.132       2.695       2.300       2.035    
        1.803       1.548       1.278       1.058      0.9142      0.7746      0.5189      0.2551      0.1109       0.000    
  47    10.00       9.892       9.792       9.665       9.513       9.369       9.226       9.055       8.877       8.727    
        8.597       8.477       8.315       8.141       7.959       7.767       7.534       7.234       6.941       6.488    
        6.003       5.707       5.441       5.244       5.081       4.961       4.851       4.743       4.648       4.500    
        4.294       4.115       3.943       3.764       3.621       3.404       3.010       2.620       2.291       2.010    
        1.807       1.567       1.326       1.115      0.9360      0.7103      0.4267      0.2230      9.2888E-02   0.000    
  48    10.00       9.880       9.759       9.623       9.486       9.358       9.213       9.056       8.891       8.743    
        8.611       8.468       8.290       8.111       7.932       7.741       7.517       7.235       6.871       6.423    
        6.007       5.703       5.445       5.264       5.130       4.981       4.869       4.779       4.661       4.460    
        4.258       4.083       3.926       3.795       3.605       3.320       2.947       2.597       2.285       2.039    
        1.820       1.591       1.374       1.135      0.8676      0.5769      0.3646      0.2162      9.7697E-02   0.000    
  49    10.00       9.869       9.737       9.604       9.491       9.359       9.205       9.051       8.918       8.763    
        8.605       8.424       8.249       8.099       7.895       7.709       7.522       7.207       6.848       6.492    
        6.052       5.714       5.457       5.298       5.140       4.980       4.893       4.805       4.614       4.372    
        4.200       4.061       3.949       3.777       3.557       3.304       2.931       2.582       2.338       2.076    
        1.818       1.608       1.377       1.096      0.7680      0.5142      0.3646      0.2353      0.1207       0.000    
  50    10.00       9.874       9.742       9.606       9.483       9.353       9.216       9.064       8.924       8.786    
        8.591       8.402       8.242       8.040       7.833       7.691       7.514       7.269       6.913       6.561    
        6.113       5.687       5.463       5.302       5.137       5.006       4.901       4.783       4.557       4.328    
        4.186       4.072       3.940       3.762       3.559       3.317       2.941       2.583       2.346       2.109    
        1.865       1.600       1.340       1.039      0.7159      0.5262      0.3923      0.2659      0.1604       0.000    

 HEAD WILL BE SAVED ON UNIT   51 AT END OF TIME STEP   3, STRESS PERIOD    2

 DRAWDOWN WILL BE SAVED ON UNIT   52 AT END OF TIME STEP   3, STRESS PERIOD    2
1
  VOLUMETRIC BUDGET FOR ENTIRE MODEL AT END OF TIME STEP  3 IN STRESS PERIOD   2
  ------------------------------------------------------------------------------

     CUMULATIVE VOLUMES      L**3       RATES FOR THIS TIME STEP      L**3/T
     ------------------                 ------------------------

           IN:                                      IN:
           ---                                      ---
             STORAGE =        1500.0070               STORAGE =         500.0018
       CONSTANT HEAD =        1489.8367         CONSTANT HEAD =         372.4592
               WELLS =           0.0000                 WELLS =           0.0000

            TOTAL IN =        2989.8438              TOTAL IN =         872.4610

          OUT:                                     OUT:
          ----                                     ----
             STORAGE =       6.6636E-03               STORAGE =       1.6685E-03
       CONSTANT HEAD =        1489.8363         CONSTANT HEAD =         372.4591
               WELLS =        1500.0000                 WELLS =         500.0000

           TOTAL OUT =        2989.8430             TOTAL OUT =         872.4608

            IN - OUT =       7.3242E-04              IN - OUT =       2.4414E-04

 PERCENT DISCREPANCY =           0.00     PERCENT DISCREPANCY =           0.00






          TIME SUMMARY AT END OF TIME STEP   3 IN STRESS PERIOD    2
                    SECONDS     MINUTES      HOURS       DAYS        YEARS
                    -----------------------------------------------------------
   TIME STEP LENGTH  86400.      1440.0      24.000      1.0000     2.73785E-03
 STRESS PERIOD TIME 2.59200E+05  4320.0      72.000      3.0000     8.21355E-03
         TOTAL TIME 3.45600E+05  5760.0      96.000      4.0000     1.09514E-02
1
 
 SOLVING FOR HEAD 

 OUTPUT CONTROL FOR STRESS PERIOD    2   TIME STEP   4
    SAVE HEAD FOR ALL LAYERS
    SAVE DRAWDOWN FOR ALL LAYERS
    SAVE BUDGET
    PRINT HEAD FOR ALL LAYERS
    PRINT BUDGET
 UBDSV1 SAVING "         STORAGE" ON UNIT  53 AT TIME STEP  4, STRESS PERIOD   2
 UBDSV2 SAVING "   CONSTANT HEAD" ON UNIT  53 AT TIME STEP  4, STRESS PERIOD   2
 UBDSV1 SAVING "FLOW RIGHT FACE " ON UNIT  53 AT TIME STEP  4, STRESS PERIOD   2
 UBDSV1 SAVING "FLOW FRONT FACE " ON UNIT  53 AT TIME STEP  4, STRESS PERIOD   2
1
              HEAD IN LAYER   1 AT END OF TIME STEP   4 IN STRESS PERIOD    2
  ---------------------------------------------------------------------------

            1           2           3           4           5           6           7           8           9          10
           11          12          13          14          15          16          17          18          19          20
           21          22          23          24          25          26          27          28          29          30
           31          32          33          34          35          36          37          38          39          40
           41          42          43          44          45          46          47          48          49          50
 ........................................................................................................................
   1    10.00       9.953       9.906       9.851       9.808       9.771       9.722       9.655       9.581       9.513    
        9.362       9.174       9.035       8.881       8.716       8.549       8.395       8.217       7.979       7.743    
        7.582       7.397       7.154       6.907       6.688       6.495       6.222       5.973       5.797       5.612    
        5.451       5.345       5.228       5.093       4.964       4.804       4.632       4.400       4.135       3.846    
        3.475       3.099       2.607       2.072       1.670       1.381       1.165      0.9189      0.5394       0.000    
   2    10.00       9.948       9.898       9.852       9.815       9.779       9.725       9.656       9.588       9.496    
        9.350       9.181       9.025       8.884       8.732       8.561       8.377       8.195       7.973       7.735    
        7.559       7.408       7.149       6.883       6.688       6.471       6.208       5.970       5.770       5.595    
        5.458       5.359       5.259       5.114       4.964       4.805       4.607       4.391       4.134       3.805    
        3.458       3.137       2.620       2.088       1.732       1.474       1.225      0.9490      0.5728       0.000    
   3    10.00       9.940       9.898       9.866       9.831       9.794       9.735       9.653       9.571       9.471    
        9.338       9.189       9.039       8.897       8.716       8.502       8.324       8.166       7.963       7.754    
        7.573       7.359       7.106       6.872       6.660       6.418       6.170       5.936       5.729       5.597    
        5.481       5.384       5.283       5.124       4.966       4.797       4.602       4.360       4.074       3.821    
        3.512       3.074       2.570       2.187       1.883       1.582       1.276      0.9619      0.5428       0.000    
   4    10.00       9.940       9.903       9.874       9.850       9.811       9.744       9.649       9.552       9.453    
        9.326       9.192       9.042       8.865       8.644       8.446       8.318       8.141       7.945       7.782    
        7.537       7.268       7.046       6.839       6.634       6.348       6.075       5.890       5.744       5.627    
        5.520       5.418       5.309       5.125       4.930       4.778       4.572       4.322       4.075       3.851    
        3.500       3.017       2.635       2.311       1.984       1.642       1.273      0.9056      0.4639       0.000    
   5    10.00       9.945       9.911       9.882       9.860       9.820       9.749       9.642       9.533       9.434    
        9.327       9.190       8.999       8.792       8.605       8.448       8.291       8.126       7.942       7.715    
        7.435       7.213       7.029       6.818       6.561       6.267       6.040       5.905       5.784       5.667    
        5.546       5.421       5.297       5.122       4.923       4.739       4.553       4.353       4.126       3.829    
        3.430       3.060       2.732       2.404       2.046       1.648       1.184      0.7630      0.3950       0.000    
   6    10.00       9.954       9.921       9.893       9.863       9.819       9.743       9.628       9.533       9.428    
        9.308       9.139       8.931       8.759       8.588       8.411       8.252       8.105       7.901       7.647    
        7.399       7.187       7.000       6.744       6.467       6.242       6.056       5.927       5.799       5.678    
        5.570       5.432       5.276       5.096       4.903       4.743       4.578       4.395       4.154       3.833    
        3.481       3.121       2.784       2.453       2.064       1.582       1.082      0.7177      0.3694       0.000    
   7    10.00       9.960       9.931       9.902       9.870       9.817       9.716       9.605       9.507       9.378    
        9.256       9.078       8.890       8.714       8.541       8.364       8.208       8.076       7.845       7.575    
        7.354       7.143       6.936       6.689       6.452       6.245       6.080       5.936       5.801       5.700    
        5.588       5.439       5.272       5.084       4.914       4.771       4.619       4.427       4.177       3.881    
        3.528       3.157       2.806       2.440       2.055       1.549       1.036      0.6838      0.3236       0.000    
   8    10.00       9.967       9.941       9.909       9.872       9.787       9.665       9.560       9.439       9.316    
        9.182       9.002       8.844       8.667       8.475       8.305       8.171       8.016       7.803       7.543    
        7.291       7.097       6.927       6.677       6.436       6.252       6.068       5.918       5.819       5.724    
        5.592       5.443       5.298       5.126       4.940       4.787       4.670       4.519       4.268       3.923    
        3.534       3.202       2.873       2.445       2.016       1.450      0.9598      0.6700      0.3100       0.000    
   9    10.00       9.974       9.945       9.909       9.847       9.736       9.607       9.486       9.380       9.254    
        9.097       8.937       8.782       8.615       8.419       8.261       8.138       7.959       7.752       7.495    
        7.275       7.086       6.858       6.612       6.410       6.247       6.060       5.925       5.827       5.721    
        5.599       5.461       5.322       5.170       5.006       4.851       4.722       4.585       4.322       3.946    
        3.585       3.286       2.937       2.522       1.886       1.248      0.9145      0.5667      0.2162       0.000    
  10    10.00       9.974       9.944       9.894       9.799       9.668       9.526       9.432       9.332       9.185    
        9.048       8.892       8.738       8.561       8.384       8.242       8.081       7.898       7.685       7.479    
        7.267       6.994       6.765       6.570       6.396       6.252       6.081       5.935       5.840       5.741    
        5.606       5.458       5.331       5.186       5.038       4.926       4.793       4.630       4.327       3.951    
        3.665       3.399       2.996       2.371       1.635       1.173      0.8303      0.5068      0.2528       0.000    
  11    10.00       9.974       9.935       9.857       9.751       9.605       9.480       9.402       9.284       9.159    
        9.028       8.866       8.684       8.497       8.349       8.201       8.055       7.861       7.659       7.459    
        7.177       6.917       6.729       6.552       6.384       6.229       6.074       5.950       5.862       5.766    
        5.616       5.472       5.357       5.222       5.091       4.963       4.811       4.633       4.346       4.039    
        3.734       3.386       2.948       2.259       1.569       1.103      0.7784      0.5903      0.3260       0.000    
  12    10.00       9.973       9.917       9.818       9.680       9.537       9.438       9.360       9.258       9.145    
        9.004       8.833       8.653       8.486       8.336       8.175       8.009       7.819       7.619       7.364    
        7.094       6.895       6.714       6.538       6.358       6.203       6.084       5.978       5.870       5.759    
        5.626       5.503       5.398       5.281       5.158       5.026       4.855       4.632       4.362       4.081    
        3.753       3.373       2.773       2.000       1.415       1.087      0.8646      0.6266      0.3570       0.000    
  13    10.00       9.964       9.878       9.743       9.600       9.478       9.399       9.331       9.245       9.138    
        8.991       8.815       8.649       8.517       8.343       8.147       7.957       7.755       7.541       7.301    
        7.068       6.860       6.673       6.498       6.331       6.209       6.112       5.985       5.849       5.750    
        5.653       5.543       5.442       5.333       5.213       5.091       4.928       4.667       4.382       4.049    
        3.672       3.195       2.502       1.876       1.450       1.169      0.9092      0.6282      0.3103       0.000    
  14    10.00       9.934       9.812       9.664       9.533       9.438       9.385       9.324       9.242       9.126    
        8.965       8.817       8.680       8.542       8.353       8.124       7.922       7.698       7.464       7.225    
        7.007       6.809       6.624       6.456       6.314       6.230       6.119       5.974       5.850       5.762    
        5.681       5.576       5.480       5.371       5.256       5.151       4.958       4.687       4.381       3.966    
        3.522       2.963       2.429       1.970       1.544       1.214      0.9254      0.6289      0.2800       0.000    
  15    10.00       9.877       9.743       9.612       9.508       9.435       9.377       9.320       9.240       9.134    
        8.993       8.848       8.717       8.530       8.316       8.102       7.876       7.648       7.381       7.131    
        6.939       6.756       6.582       6.440       6.326       6.226       6.111       5.966       5.857       5.781    
        5.698       5.600       5.515       5.410       5.293       5.175       4.970       4.706       4.323       3.874    
        3.414       2.908       2.473       1.998       1.638       1.286      0.9368      0.6227      0.2553       0.000    
  16    10.00       9.858       9.713       9.594       9.504       9.438       9.380       9.327       9.251       9.142    
        9.012       8.876       8.722       8.495       8.269       8.095       7.878       7.579       7.286       7.058    
        6.862       6.709       6.578       6.448       6.327       6.226       6.105       5.975       5.873       5.787    
        5.714       5.629       5.528       5.430       5.320       5.184       4.991       4.671       4.252       3.840    
        3.442       2.950       2.458       2.038       1.698       1.328      0.9336      0.5578      0.2099       0.000    
  17    10.00       9.840       9.695       9.599       9.520       9.454       9.396       9.337       9.256       9.155    
        9.037       8.872       8.668       8.432       8.245       8.085       7.840       7.521       7.225       7.010    
        6.845       6.685       6.548       6.436       6.326       6.215       6.097       5.991       5.891       5.804    
        5.741       5.655       5.537       5.429       5.318       5.171       4.943       4.664       4.315       3.874    
        3.414       2.893       2.437       2.065       1.717       1.338      0.9533      0.5810      0.2455       0.000    
  18    10.00       9.831       9.695       9.613       9.542       9.478       9.421       9.351       9.271       9.164    
        9.026       8.836       8.614       8.417       8.237       8.018       7.747       7.471       7.215       7.009    
        6.819       6.627       6.503       6.412       6.311       6.196       6.100       6.004       5.923       5.842    
        5.766       5.673       5.543       5.415       5.295       5.135       4.908       4.672       4.365       3.951    
        3.348       2.793       2.421       2.067       1.770       1.371      0.9473      0.5693      0.2451       0.000    
  19    10.00       9.839       9.726       9.642       9.566       9.502       9.435       9.370       9.297       9.175    
        9.013       8.813       8.596       8.382       8.157       7.930       7.685       7.430       7.189       6.978    
        6.772       6.589       6.485       6.400       6.285       6.171       6.082       6.000       5.948       5.884    
        5.798       5.685       5.531       5.393       5.280       5.144       4.917       4.651       4.338       3.853    
        3.248       2.777       2.405       2.057       1.725       1.314      0.9093      0.5655      0.2664       0.000    
  20    10.00       9.849       9.752       9.678       9.605       9.529       9.451       9.381       9.307       9.184    
        9.009       8.803       8.555       8.285       8.037       7.858       7.623       7.359       7.153       6.950    
        6.765       6.605       6.477       6.366       6.234       6.142       6.057       5.989       5.947       5.902    
        5.833       5.685       5.515       5.399       5.278       5.126       4.866       4.596       4.240       3.701    
        3.180       2.802       2.372       1.976       1.616       1.212      0.9116      0.5613      0.2488       0.000    
  21    10.00       9.871       9.784       9.710       9.630       9.557       9.470       9.395       9.315       9.178    
        8.991       8.743       8.440       8.136       7.912       7.756       7.546       7.358       7.166       6.954    
        6.774       6.608       6.453       6.272       6.150       6.088       6.005       5.962       5.939       5.895    
        5.818       5.680       5.533       5.419       5.282       5.057       4.792       4.555       4.042       3.489    
        3.105       2.701       2.264       1.897       1.516       1.163      0.8252      0.4944      0.2483       0.000    
  22    10.00       9.899       9.808       9.727       9.649       9.581       9.483       9.385       9.293       9.153    
        8.929       8.624       8.292       8.015       7.828       7.670       7.514       7.381       7.186       6.984    
        6.806       6.592       6.341       6.118       6.017       5.921       5.890       5.911       5.894       5.853    
        5.785       5.679       5.561       5.439       5.280       5.015       4.732       4.312       3.746       3.397    
        2.988       2.555       2.165       1.813       1.489       1.070      0.7159      0.4740      0.2664       0.000    
  23    10.00       9.900       9.813       9.740       9.658       9.568       9.457       9.369       9.289       9.114    
        8.841       8.518       8.220       7.982       7.794       7.662       7.519       7.354       7.175       7.020    
        6.793       6.486       6.205       5.961       5.614       5.604       5.740       5.802       5.811       5.805    
        5.749       5.675       5.597       5.452       5.249       4.954       4.547       4.072       3.618       3.199    
        2.815       2.459       2.086       1.807       1.397      0.9724      0.6963      0.4558      0.2366       0.000    
  24    10.00       9.922       9.823       9.727       9.633       9.529       9.430       9.355       9.266       9.060    
        8.751       8.448       8.203       7.997       7.819       7.649       7.479       7.334       7.193       7.018    
        6.756       6.448       6.111       5.426       4.605       5.075       5.482       5.666       5.735       5.749    
        5.711       5.673       5.595       5.420       5.198       4.835       4.383       3.983       3.481       3.038    
        2.739       2.398       2.045       1.689       1.250      0.9021      0.6698      0.4269      0.1883       0.000    
  25    10.00       9.915       9.800       9.683       9.573       9.480       9.404       9.329       9.219       9.005    
        8.681       8.401       8.214       8.022       7.817       7.644       7.488       7.362       7.236       7.023    
        6.724       6.414       5.866       4.678       1.978       4.555       5.242       5.573       5.691       5.713    
        5.698       5.659       5.539       5.348       5.125       4.746       4.267       3.808       3.400       3.017    
        2.674       2.304       1.903       1.528       1.112      0.8285      0.6672      0.4151      0.1538       0.000    
  26    10.00       9.893       9.747       9.615       9.527       9.451       9.377       9.284       9.153       8.889    
        8.589       8.395       8.217       8.026       7.835       7.669       7.523       7.399       7.244       7.019    
        6.755       6.420       5.945       5.323       4.704       5.028       5.405       5.611       5.690       5.703    
        5.679       5.604       5.466       5.280       5.033       4.627       4.117       3.744       3.409       2.992    
        2.631       2.213       1.752       1.351       1.011      0.8111      0.6313      0.3701      0.1575       0.000    
  27    10.00       9.870       9.714       9.591       9.517       9.418       9.320       9.203       9.028       8.779    
        8.569       8.397       8.217       8.030       7.842       7.709       7.607       7.439       7.238       7.002    
        6.768       6.533       6.173       5.795       5.476       5.517       5.626       5.692       5.711       5.695    
        5.635       5.533       5.407       5.207       4.929       4.500       4.101       3.768       3.377       2.984    
        2.609       2.104       1.578       1.202      0.9653      0.7981      0.6005      0.3914      0.1887       0.000    
  28    10.00       9.853       9.738       9.600       9.474       9.353       9.245       9.108       8.935       8.742    
        8.569       8.415       8.234       8.025       7.857       7.750       7.633       7.441       7.200       6.980    
        6.818       6.645       6.379       6.110       5.914       5.828       5.787       5.764       5.731       5.661    
        5.570       5.489       5.349       5.126       4.808       4.440       4.128       3.743       3.339       2.945    
        2.490       2.016       1.494       1.120      0.9548      0.7951      0.6192      0.4088      0.1895       0.000    
  29    10.00       9.858       9.715       9.569       9.417       9.301       9.179       9.027       8.882       8.730    
        8.575       8.420       8.241       8.061       7.917       7.787       7.626       7.405       7.183       7.011    
        6.878       6.727       6.513       6.272       6.102       5.991       5.894       5.803       5.713       5.616    
        5.533       5.426       5.280       5.042       4.715       4.417       4.136       3.779       3.330       2.833    
        2.419       1.915       1.396       1.104      0.9579      0.8008      0.6146      0.3994      0.1986       0.000    
  30    10.00       9.837       9.693       9.517       9.364       9.257       9.127       8.993       8.880       8.742    
        8.581       8.410       8.243       8.098       7.966       7.813       7.602       7.394       7.218       7.061    
        6.946       6.797       6.590       6.369       6.177       6.045       5.920       5.791       5.688       5.584    
        5.477       5.371       5.213       4.948       4.677       4.449       4.168       3.709       3.165       2.670    
        2.257       1.799       1.405       1.134      0.9799      0.8028      0.6038      0.4187      0.2053       0.000    
  31    10.00       9.815       9.648       9.481       9.343       9.232       9.108       8.989       8.875       8.738    
        8.576       8.400       8.254       8.129       7.997       7.818       7.607       7.430       7.292       7.153    
        7.023       6.839       6.617       6.426       6.217       6.026       5.883       5.763       5.664       5.549    
        5.430       5.310       5.133       4.904       4.660       4.419       3.994       3.504       3.061       2.583    
        2.195       1.740       1.358       1.163      0.9983      0.8315      0.6244      0.4193      0.1987       0.000    
  32    10.00       9.800       9.621       9.478       9.361       9.250       9.120       8.982       8.843       8.712    
        8.549       8.396       8.263       8.121       7.993       7.835       7.669       7.534       7.385       7.227    
        7.077       6.876       6.655       6.463       6.223       5.990       5.848       5.737       5.616       5.476    
        5.353       5.259       5.053       4.811       4.606       4.291       3.791       3.344       2.963       2.530    
        2.080       1.659       1.380       1.230       1.050      0.8389      0.6198      0.3984      0.1987       0.000    
  33    10.00       9.794       9.641       9.525       9.408       9.277       9.118       8.964       8.813       8.662    
        8.525       8.395       8.261       8.124       7.980       7.855       7.728       7.604       7.468       7.295    
        7.100       6.908       6.727       6.488       6.199       5.954       5.795       5.680       5.542       5.400    
        5.293       5.162       4.959       4.755       4.480       4.073       3.584       3.218       2.858       2.360    
        1.956       1.683       1.461       1.283       1.077      0.8556      0.5871      0.3506      0.1579       0.000    
  34    10.00       9.812       9.686       9.577       9.446       9.284       9.116       8.933       8.765       8.637    
        8.516       8.396       8.274       8.129       7.997       7.872       7.758       7.655       7.511       7.316    
        7.128       6.960       6.765       6.497       6.179       5.906       5.734       5.602       5.475       5.330    
        5.210       5.073       4.899       4.656       4.336       3.851       3.393       3.077       2.659       2.227    
        1.981       1.802       1.588       1.358       1.088      0.7759      0.4744      0.2807      0.1163       0.000    
  35    10.00       9.843       9.729       9.618       9.476       9.294       9.100       8.895       8.736       8.626    
        8.544       8.421       8.281       8.123       7.981       7.888       7.802       7.686       7.527       7.340    
        7.161       6.988       6.795       6.467       6.102       5.842       5.664       5.540       5.406       5.251    
        5.143       5.003       4.810       4.500       4.019       3.539       3.247       2.930       2.511       2.256    
        2.086       1.882       1.667       1.443       1.101      0.6597      0.3642      0.2393      0.1214       0.000    
  36    10.00       9.861       9.762       9.655       9.503       9.284       9.046       8.855       8.741       8.657    
        8.542       8.397       8.265       8.122       7.996       7.904       7.814       7.702       7.574       7.392    
        7.200       7.016       6.758       6.387       6.040       5.785       5.623       5.479       5.309       5.181    
        5.052       4.886       4.587       4.144       3.724       3.413       3.150       2.822       2.497       2.331    
        2.158       1.975       1.758       1.469       1.004      0.5551      0.3419      0.2187      0.1124       0.000    
  37    10.00       9.875       9.798       9.682       9.479       9.238       9.028       8.878       8.784       8.681    
        8.528       8.372       8.256       8.131       8.009       7.916       7.828       7.723       7.581       7.411    
        7.253       7.036       6.697       6.345       6.002       5.714       5.509       5.331       5.177       5.057    
        4.917       4.673       4.240       3.863       3.591       3.330       3.066       2.814       2.586       2.401    
        2.235       2.030       1.783       1.403      0.9189      0.5347      0.3200      0.2034      0.1020       0.000    
  38    10.00       9.893       9.800       9.672       9.461       9.212       9.033       8.922       8.822       8.697    
        8.533       8.369       8.254       8.136       8.011       7.915       7.835       7.738       7.590       7.444    
        7.289       7.012       6.617       6.233       5.872       5.582       5.352       5.158       5.021       4.906    
        4.735       4.340       3.984       3.768       3.509       3.259       3.073       2.867       2.660       2.483    
        2.289       2.010       1.698       1.286      0.8062      0.5118      0.3599      0.2242      0.1006       0.000    
  39    10.00       9.892       9.785       9.651       9.446       9.221       9.059       8.959       8.832       8.692    
        8.558       8.392       8.259       8.144       8.022       7.917       7.823       7.722       7.601       7.467    
        7.263       6.950       6.525       6.089       5.720       5.442       5.177       4.974       4.887       4.767    
        4.473       4.104       3.908       3.668       3.433       3.263       3.115       2.928       2.729       2.565    
        2.283       1.890       1.524       1.081      0.7184      0.5542      0.4124      0.2685      0.1381       0.000    
  40    10.00       9.882       9.788       9.651       9.462       9.272       9.113       8.978       8.828       8.699    
        8.597       8.430       8.260       8.141       8.027       7.903       7.798       7.718       7.609       7.425    
        7.179       6.812       6.380       5.968       5.600       5.303       4.990       4.838       4.757       4.595    
        4.335       4.088       3.827       3.588       3.430       3.288       3.148       2.976       2.794       2.579    
        2.199       1.771       1.376       1.018      0.7704      0.6013      0.4601      0.3247      0.1594       0.000    
  41    10.00       9.898       9.822       9.688       9.493       9.294       9.140       9.018       8.869       8.715    
        8.591       8.433       8.272       8.160       8.023       7.874       7.787       7.695       7.540       7.330    
        7.072       6.711       6.277       5.877       5.506       5.102       4.821       4.746       4.651       4.536    
        4.342       4.043       3.788       3.606       3.453       3.329       3.177       3.014       2.826       2.491    
        2.048       1.633       1.291       1.028      0.8133      0.6564      0.5055      0.3571      0.1880       0.000    
  42    10.00       9.923       9.839       9.709       9.539       9.347       9.172       9.046       8.909       8.734    
        8.573       8.421       8.281       8.172       8.023       7.867       7.756       7.628       7.456       7.215    
        6.916       6.521       6.141       5.739       5.251       4.903       4.771       4.709       4.630       4.511    
        4.284       4.026       3.793       3.613       3.492       3.361       3.227       3.051       2.752       2.309    
        1.923       1.615       1.319       1.022      0.8233      0.6900      0.5453      0.3716      0.2062       0.000    
  43    10.00       9.939       9.848       9.713       9.544       9.383       9.227       9.084       8.911       8.726    
        8.577       8.422       8.283       8.179       8.037       7.853       7.702       7.555       7.321       7.017    
        6.730       6.353       6.006       5.542       5.085       4.864       4.762       4.690       4.617       4.492    
        4.277       4.045       3.824       3.652       3.537       3.408       3.232       2.981       2.545       2.155    
        1.916       1.644       1.332       1.025      0.8146      0.6914      0.5800      0.4017      0.1882       0.000    
  44    10.00       9.931       9.853       9.712       9.557       9.441       9.281       9.082       8.885       8.731    
        8.581       8.422       8.299       8.187       8.017       7.814       7.638       7.463       7.188       6.891    
        6.552       6.181       5.813       5.353       5.015       4.853       4.764       4.704       4.624       4.465    
        4.250       4.066       3.873       3.714       3.597       3.416       3.184       2.825       2.386       2.131    
        1.912       1.628       1.318       1.038      0.8240      0.6930      0.5802      0.3934      0.1733       0.000    
  45    10.00       9.917       9.822       9.708       9.595       9.443       9.272       9.080       8.885       8.728    
        8.570       8.426       8.316       8.185       7.995       7.776       7.578       7.381       7.086       6.740    
        6.354       5.966       5.573       5.239       5.008       4.871       4.785       4.720       4.616       4.488    
        4.303       4.094       3.923       3.758       3.588       3.398       3.145       2.766       2.387       2.089    
        1.841       1.575       1.286       1.036      0.8494      0.7409      0.5725      0.3408      0.1553       0.000    
  46    10.00       9.899       9.801       9.709       9.579       9.404       9.237       9.080       8.886       8.717    
        8.576       8.443       8.330       8.170       7.967       7.770       7.561       7.302       6.987       6.613    
        6.163       5.781       5.470       5.218       5.043       4.921       4.814       4.724       4.642       4.500    
        4.303       4.122       3.953       3.762       3.594       3.416       3.132       2.695       2.300       2.035    
        1.803       1.548       1.278       1.058      0.9142      0.7746      0.5189      0.2551      0.1109       0.000    
  47    10.00       9.892       9.792       9.665       9.513       9.369       9.226       9.055       8.877       8.727    
        8.597       8.477       8.315       8.141       7.959       7.767       7.534       7.234       6.941       6.488    
        6.003       5.707       5.441       5.244       5.081       4.961       4.851       4.743       4.648       4.500    
        4.294       4.115       3.943       3.764       3.621       3.404       3.010       2.620       2.291       2.010    
        1.807       1.567       1.326       1.115      0.9360      0.7103      0.4267      0.2230      9.2888E-02   0.000    
  48    10.00       9.880       9.759       9.623       9.486       9.358       9.213       9.056       8.891       8.743    
        8.611       8.468       8.290       8.111       7.932       7.741       7.517       7.235       6.871       6.423    
        6.007       5.703       5.445       5.264       5.130       4.981       4.869       4.779       4.661       4.460    
        4.258       4.083       3.926       3.795       3.605       3.320       2.947       2.597       2.285       2.039    
        1.820       1.591       1.374       1.135      0.8676      0.5769      0.3646      0.2162      9.7697E-02   0.000    
  49    10.00       9.869       9.737       9.604       9.491       9.359       9.205       9.051       8.918       8.763    
        8.605       8.424       8.249       8.099       7.895       7.709       7.522       7.207       6.848       6.492    
        6.052       5.714       5.457       5.298       5.140       4.980       4.893       4.805       4.614       4.372    
        4.200       4.061       3.949       3.777       3.557       3.304       2.931       2.582       2.338       2.076    
        1.818       1.608       1.377       1.096      0.7680      0.5142      0.3646      0.2353      0.1207       0.000    
  50    10.00       9.874       9.742       9.606       9.483       9.353       9.216       9.064       8.924       8.786    
        8.591       8.402       8.242       8.040       7.833       7.691       7.514       7.269       6.913       6.561    
        6.113       5.687       5.463       5.302       5.137       5.006       4.901       4.783       4.557       4.328    
        4.186       4.072       3.940       3.762       3.559       3.317       2.941       2.583       2.346       2.109    
        1.865       1.600       1.340       1.039      0.7159      0.5262      0.3923      0.2659      0.1604       0.000    

 HEAD WILL BE SAVED ON UNIT   51 AT END OF TIME STEP   4, STRESS PERIOD    2

 DRAWDOWN WILL BE SAVED ON UNIT   52 AT END OF TIME STEP   4, STRESS PERIOD    2
1
  VOLUMETRIC BUDGET FOR ENTIRE MODEL AT END OF TIME STEP  4 IN STRESS PERIOD   2
  ------------------------------------------------------------------------------

     CUMULATIVE VOLUMES      L**3       RATES FOR THIS TIME STEP      L**3/T
     ------------------                 ------------------------

           IN:                                      IN:
           ---                                      ---
             STORAGE =        2000.0083               STORAGE =         500.0013
       CONSTANT HEAD =        1862.2959         CONSTANT HEAD =         372.4592
               WELLS =           0.0000                 WELLS =           0.0000

            TOTAL IN =        3862.3042              TOTAL IN =         872.4606

          OUT:                                     OUT:
          ----                                     ----
             STORAGE =       7.9394E-03               STORAGE =       1.2758E-03
       CONSTANT HEAD =        1862.2954         CONSTANT HEAD =         372.4591
               WELLS =        2000.0000                 WELLS =         500.0000

           TOTAL OUT =        3862.3035             TOTAL OUT =         872.4603

            IN - OUT =       7.3242E-04              IN - OUT =       2.4414E-04

 PERCENT DISCREPANCY =           0.00     PERCENT DISCREPANCY =           0.00






          TIME SUMMARY AT END OF TIME STEP   4 IN STRESS PERIOD    2
                    SECONDS     MINUTES      HOURS       DAYS        YEARS
                    -----------------------------------------------------------
   TIME STEP LENGTH  86400.      1440.0      24.000      1.0000     2.73785E-03
 STRESS PERIOD TIME 3.45600E+05  5760.0      96.000      4.0000     1.09514E-02
         TOTAL TIME 4.32000E+05  7200.0      120.00      5.0000     1.36893E-02
1
 
 SOLVING FOR HEAD 

 OUTPUT CONTROL FOR STRESS PERIOD    2   TIME STEP   5
    SAVE HEAD FOR ALL LAYERS
    SAVE DRAWDOWN FOR ALL LAYERS
    SAVE BUDGET
    PRINT HEAD FOR ALL LAYERS
    PRINT BUDGET
 UBDSV1 SAVING "         STORAGE" ON UNIT  53 AT TIME STEP  5, STRESS PERIOD   2
 UBDSV2 SAVING "   CONSTANT HEAD" ON UNIT  53 AT TIME STEP  5, STRESS PERIOD   2
 UBDSV1 SAVING "FLOW RIGHT FACE " ON UNIT  53 AT TIME STEP  5, STRESS PERIOD   2
 UBDSV1 SAVING "FLOW FRONT FACE " ON UNIT  53 AT TIME STEP  5, STRESS PERIOD   2
1
              HEAD IN LAYER   1 AT END OF TIME STEP   5 IN STRESS PERIOD    2
  ---------------------------------------------------------------------------

            1           2           3           4           5           6           7           8           9          10
           11          12          13          14          15          16          17          18          19          20
           21          22          23          24          25          26          27          28          29          30
           31          32          33          34          35          36          37          38          39          40
           41          42          43          44          45          46          47          48          49          50
 ........................................................................................................................
   1    10.00       9.953       9.906       9.851       9.808       9.771       9.722       9.655       9.581       9.513    
        9.362       9.174       9.035       8.881       8.716       8.549       8.395       8.217       7.979       7.743    
        7.582       7.397       7.154       6.907       6.688       6.495       6.222       5.973       5.797       5.612    
        5.451       5.345       5.228       5.093       4.964       4.804       4.632       4.400       4.135       3.846    
        3.475       3.099       2.607       2.072       1.670       1.381       1.165      0.9189      0.5394       0.000    
   2    10.00       9.948       9.898       9.852       9.815       9.779       9.725       9.656       9.588       9.496    
        9.350       9.181       9.025       8.884       8.732       8.561       8.377       8.195       7.973       7.735    
        7.559       7.408       7.149       6.883       6.688       6.471       6.208       5.970       5.770       5.595    
        5.458       5.359       5.259       5.114       4.964       4.805       4.607       4.391       4.134       3.805    
        3.458       3.137       2.620       2.088       1.732       1.474       1.225      0.9490      0.5728       0.000    
   3    10.00       9.940       9.898       9.866       9.831       9.794       9.735       9.653       9.571       9.471    
        9.338       9.189       9.039       8.897       8.716       8.502       8.324       8.166       7.963       7.754    
        7.573       7.359       7.106       6.872       6.660       6.418       6.170       5.936       5.729       5.597    
        5.481       5.384       5.283       5.124       4.966       4.797       4.602       4.360       4.074       3.821    
        3.512       3.074       2.570       2.187       1.883       1.582       1.276      0.9619      0.5428       0.000    
   4    10.00       9.940       9.903       9.874       9.850       9.811       9.744       9.649       9.552       9.453    
        9.326       9.192       9.042       8.865       8.644       8.446       8.318       8.141       7.945       7.782    
        7.537       7.268       7.046       6.839       6.634       6.348       6.075       5.890       5.744       5.627    
        5.520       5.418       5.309       5.125       4.930       4.778       4.572       4.322       4.075       3.851    
        3.500       3.017       2.635       2.311       1.984       1.642       1.273      0.9056      0.4639       0.000    
   5    10.00       9.945       9.911       9.882       9.860       9.820       9.749       9.642       9.533       9.434    
        9.327       9.190       8.999       8.792       8.605       8.448       8.291       8.126       7.942       7.715    
        7.435       7.213       7.029       6.818       6.561       6.267       6.040       5.905       5.784       5.667    
        5.546       5.421       5.297       5.122       4.923       4.739       4.553       4.353       4.126       3.829    
        3.430       3.060       2.732       2.404       2.046       1.648       1.184      0.7630      0.3950       0.000    
   6    10.00       9.954       9.921       9.893       9.863       9.819       9.743       9.628       9.533       9.428    
        9.308       9.139       8.931       8.759       8.588       8.411       8.252       8.105       7.901       7.647    
        7.399       7.187       7.000       6.744       6.466       6.242       6.056       5.927       5.799       5.678    
        5.570       5.432       5.276       5.096       4.903       4.743       4.578       4.395       4.154       3.833    
        3.481       3.121       2.784       2.453       2.064       1.582       1.082      0.7177      0.3694       0.000    
   7    10.00       9.960       9.931       9.902       9.870       9.817       9.716       9.605       9.507       9.378    
        9.256       9.078       8.890       8.714       8.541       8.364       8.208       8.076       7.845       7.575    
        7.354       7.143       6.936       6.689       6.451       6.245       6.080       5.936       5.801       5.700    
        5.588       5.439       5.272       5.084       4.914       4.771       4.619       4.427       4.177       3.881    
        3.528       3.157       2.806       2.440       2.055       1.549       1.036      0.6838      0.3236       0.000    
   8    10.00       9.967       9.941       9.909       9.872       9.787       9.665       9.560       9.439       9.316    
        9.182       9.002       8.844       8.667       8.475       8.305       8.171       8.016       7.803       7.543    
        7.291       7.097       6.927       6.677       6.436       6.252       6.068       5.918       5.819       5.723    
        5.592       5.443       5.298       5.126       4.940       4.787       4.670       4.519       4.268       3.923    
        3.534       3.202       2.873       2.445       2.016       1.450      0.9598      0.6700      0.3100       0.000    
   9    10.00       9.974       9.945       9.909       9.847       9.736       9.607       9.486       9.380       9.254    
        9.097       8.937       8.782       8.615       8.419       8.261       8.138       7.959       7.752       7.495    
        7.275       7.086       6.857       6.611       6.410       6.247       6.060       5.925       5.827       5.721    
        5.599       5.461       5.322       5.169       5.006       4.851       4.722       4.584       4.322       3.946    
        3.585       3.286       2.937       2.522       1.886       1.248      0.9145      0.5667      0.2162       0.000    
  10    10.00       9.974       9.944       9.894       9.799       9.668       9.526       9.432       9.332       9.185    
        9.048       8.892       8.738       8.561       8.384       8.242       8.081       7.898       7.685       7.479    
        7.267       6.994       6.764       6.569       6.395       6.251       6.080       5.935       5.839       5.740    
        5.606       5.457       5.330       5.185       5.038       4.926       4.793       4.630       4.327       3.951    
        3.664       3.399       2.996       2.371       1.635       1.173      0.8303      0.5068      0.2528       0.000    
  11    10.00       9.974       9.935       9.857       9.751       9.605       9.480       9.402       9.284       9.159    
        9.028       8.866       8.684       8.497       8.349       8.201       8.055       7.861       7.659       7.459    
        7.177       6.916       6.729       6.551       6.383       6.228       6.073       5.949       5.861       5.765    
        5.615       5.471       5.356       5.221       5.091       4.963       4.811       4.633       4.346       4.039    
        3.734       3.386       2.948       2.259       1.569       1.103      0.7784      0.5903      0.3260       0.000    
  12    10.00       9.973       9.917       9.818       9.680       9.537       9.438       9.360       9.258       9.145    
        9.004       8.833       8.653       8.486       8.336       8.175       8.009       7.819       7.619       7.364    
        7.093       6.894       6.713       6.536       6.357       6.201       6.083       5.976       5.869       5.757    
        5.625       5.502       5.397       5.280       5.157       5.026       4.855       4.632       4.362       4.081    
        3.753       3.373       2.773       2.000       1.415       1.087      0.8646      0.6266      0.3570       0.000    
  13    10.00       9.964       9.878       9.743       9.600       9.478       9.399       9.331       9.245       9.138    
        8.991       8.815       8.649       8.517       8.343       8.147       7.957       7.754       7.541       7.300    
        7.067       6.858       6.671       6.495       6.327       6.206       6.109       5.982       5.847       5.748    
        5.650       5.541       5.440       5.332       5.213       5.091       4.928       4.667       4.382       4.049    
        3.672       3.195       2.502       1.876       1.450       1.169      0.9092      0.6282      0.3103       0.000    
  14    10.00       9.934       9.812       9.664       9.533       9.438       9.385       9.324       9.242       9.126    
        8.965       8.817       8.680       8.542       8.353       8.124       7.922       7.697       7.464       7.223    
        7.005       6.806       6.620       6.451       6.310       6.225       6.115       5.970       5.846       5.758    
        5.677       5.573       5.478       5.370       5.255       5.150       4.958       4.686       4.381       3.966    
        3.522       2.963       2.429       1.970       1.544       1.214      0.9254      0.6289      0.2800       0.000    
  15    10.00       9.877       9.743       9.612       9.508       9.435       9.377       9.320       9.240       9.134    
        8.993       8.848       8.717       8.530       8.316       8.102       7.876       7.647       7.380       7.129    
        6.935       6.751       6.576       6.433       6.319       6.219       6.105       5.960       5.852       5.776    
        5.693       5.597       5.512       5.408       5.291       5.175       4.970       4.706       4.323       3.874    
        3.414       2.908       2.473       1.998       1.638       1.286      0.9368      0.6227      0.2553       0.000    
  16    10.00       9.858       9.713       9.594       9.504       9.438       9.380       9.327       9.251       9.142    
        9.012       8.876       8.722       8.495       8.268       8.095       7.878       7.579       7.284       7.055    
        6.856       6.701       6.568       6.438       6.316       6.216       6.095       5.966       5.865       5.779    
        5.708       5.625       5.524       5.427       5.319       5.183       4.991       4.671       4.252       3.840    
        3.442       2.950       2.458       2.038       1.698       1.328      0.9336      0.5578      0.2099       0.000    
  17    10.00       9.840       9.695       9.599       9.520       9.454       9.396       9.337       9.256       9.155    
        9.037       8.872       8.668       8.432       8.244       8.084       7.839       7.520       7.221       7.004    
        6.836       6.672       6.532       6.418       6.308       6.198       6.080       5.976       5.878       5.793    
        5.732       5.648       5.533       5.426       5.316       5.170       4.943       4.664       4.315       3.874    
        3.414       2.893       2.437       2.065       1.717       1.338      0.9533      0.5810      0.2455       0.000    
  18    10.00       9.831       9.695       9.613       9.542       9.478       9.421       9.351       9.271       9.164    
        9.026       8.836       8.614       8.417       8.236       8.017       7.745       7.468       7.210       7.000    
        6.806       6.606       6.478       6.384       6.284       6.168       6.074       5.981       5.903       5.827    
        5.755       5.665       5.539       5.412       5.293       5.134       4.908       4.672       4.365       3.951    
        3.348       2.793       2.421       2.067       1.770       1.371      0.9473      0.5693      0.2451       0.000    
  19    10.00       9.839       9.726       9.642       9.566       9.502       9.435       9.370       9.297       9.175    
        9.013       8.813       8.596       8.382       8.156       7.928       7.683       7.425       7.180       6.963    
        6.751       6.560       6.452       6.366       6.249       6.135       6.049       5.970       5.921       5.863    
        5.783       5.675       5.525       5.390       5.278       5.143       4.917       4.651       4.337       3.853    
        3.248       2.777       2.405       2.057       1.725       1.314      0.9093      0.5655      0.2664       0.000    
  20    10.00       9.849       9.752       9.678       9.605       9.529       9.451       9.380       9.307       9.184    
        9.009       8.803       8.554       8.285       8.036       7.856       7.618       7.351       7.139       6.929    
        6.737       6.570       6.437       6.322       6.186       6.095       6.016       5.952       5.916       5.876    
        5.814       5.674       5.510       5.396       5.276       5.125       4.866       4.596       4.239       3.701    
        3.180       2.802       2.372       1.976       1.616       1.212      0.9116      0.5613      0.2488       0.000    
  21    10.00       9.871       9.784       9.710       9.630       9.557       9.470       9.395       9.315       9.178    
        8.991       8.743       8.440       8.135       7.910       7.752       7.540       7.347       7.150       6.929    
        6.741       6.566       6.404       6.209       6.085       6.026       5.948       5.916       5.900       5.863    
        5.796       5.667       5.526       5.415       5.279       5.056       4.792       4.555       4.042       3.489    
        3.105       2.701       2.264       1.897       1.516       1.163      0.8252      0.4944      0.2483       0.000    
  22    10.00       9.899       9.808       9.727       9.649       9.581       9.483       9.385       9.293       9.153    
        8.929       8.624       8.292       8.013       7.825       7.665       7.506       7.369       7.167       6.954    
        6.765       6.535       6.265       6.032       5.930       5.834       5.812       5.847       5.843       5.814    
        5.757       5.661       5.551       5.434       5.277       5.014       4.731       4.312       3.746       3.397    
        2.988       2.555       2.165       1.813       1.489       1.070      0.7159      0.4740      0.2664       0.000    
  23    10.00       9.900       9.813       9.740       9.658       9.568       9.457       9.369       9.289       9.114    
        8.841       8.518       8.219       7.980       7.790       7.657       7.510       7.339       7.151       6.986    
        6.741       6.406       6.105       5.852       5.492       5.486       5.640       5.719       5.747       5.756    
        5.715       5.651       5.582       5.445       5.247       4.953       4.547       4.072       3.618       3.199    
        2.815       2.459       2.086       1.807       1.397      0.9724      0.6963      0.4558      0.2366       0.000    
  24    10.00       9.922       9.823       9.727       9.633       9.529       9.430       9.355       9.266       9.060    
        8.751       8.448       8.203       7.996       7.816       7.644       7.469       7.317       7.169       6.980    
        6.693       6.358       5.997       5.277       4.442       4.924       5.356       5.568       5.657       5.694    
        5.673       5.643       5.576       5.412       5.195       4.834       4.383       3.983       3.481       3.038    
        2.739       2.398       2.045       1.689       1.250      0.9021      0.6698      0.4269      0.1883       0.000    
  25    10.00       9.915       9.800       9.683       9.573       9.480       9.404       9.329       9.219       9.005    
        8.681       8.400       8.213       8.021       7.815       7.639       7.478       7.346       7.213       6.983    
        6.655       6.316       5.730       4.504       1.785       4.391       5.103       5.466       5.611       5.655    
        5.654       5.627       5.521       5.341       5.122       4.746       4.266       3.807       3.400       3.017    
        2.674       2.304       1.903       1.528       1.112      0.8285      0.6672      0.4151      0.1538       0.000    
  26    10.00       9.893       9.747       9.615       9.527       9.451       9.377       9.284       9.153       8.889    
        8.589       8.395       8.217       8.025       7.832       7.664       7.514       7.386       7.222       6.979    
        6.690       6.323       5.814       5.167       4.539       4.871       5.273       5.507       5.611       5.644    
        5.635       5.575       5.451       5.272       5.030       4.626       4.117       3.744       3.409       2.992    
        2.631       2.213       1.752       1.351       1.011      0.8111      0.6313      0.3701      0.1575       0.000    
  27    10.00       9.870       9.714       9.591       9.517       9.418       9.320       9.203       9.028       8.779    
        8.569       8.397       8.216       8.029       7.839       7.704       7.600       7.427       7.217       6.965    
        6.709       6.451       6.064       5.665       5.335       5.383       5.511       5.598       5.638       5.639    
        5.598       5.511       5.394       5.201       4.926       4.500       4.100       3.768       3.377       2.984    
        2.609       2.104       1.578       1.202      0.9653      0.7981      0.6005      0.3914      0.1887       0.000    
  28    10.00       9.853       9.738       9.600       9.474       9.353       9.245       9.108       8.935       8.742    
        8.569       8.414       8.233       8.023       7.855       7.746       7.627       7.429       7.177       6.943    
        6.767       6.580       6.294       6.007       5.805       5.724       5.692       5.683       5.669       5.619    
        5.544       5.471       5.338       5.122       4.806       4.440       4.128       3.743       3.339       2.945    
        2.490       2.016       1.494       1.120      0.9548      0.7951      0.6192      0.4088      0.1895       0.000    
  29    10.00       9.858       9.715       9.569       9.417       9.301       9.179       9.027       8.882       8.730    
        8.575       8.420       8.240       8.060       7.915       7.783       7.620       7.393       7.161       6.979    
        6.835       6.674       6.446       6.192       6.020       5.912       5.821       5.744       5.671       5.587    
        5.512       5.412       5.271       5.038       4.714       4.416       4.136       3.779       3.330       2.833    
        2.419       1.915       1.396       1.104      0.9579      0.8008      0.6146      0.3994      0.1986       0.000    
  30    10.00       9.837       9.693       9.517       9.364       9.257       9.127       8.993       8.880       8.742    
        8.581       8.410       8.243       8.097       7.964       7.811       7.596       7.382       7.199       7.033    
        6.912       6.755       6.539       6.311       6.113       5.987       5.871       5.754       5.659       5.563    
        5.462       5.360       5.206       4.945       4.675       4.448       4.167       3.709       3.165       2.670    
        2.257       1.799       1.405       1.134      0.9799      0.8028      0.6038      0.4187      0.2053       0.000    
  31    10.00       9.815       9.648       9.481       9.343       9.232       9.108       8.989       8.875       8.738    
        8.575       8.400       8.254       8.128       7.996       7.816       7.601       7.420       7.278       7.133    
        6.998       6.810       6.582       6.387       6.175       5.987       5.853       5.737       5.643       5.533    
        5.419       5.302       5.129       4.902       4.659       4.418       3.994       3.504       3.061       2.583    
        2.195       1.740       1.358       1.163      0.9983      0.8315      0.6244      0.4193      0.1987       0.000    
  32    10.00       9.800       9.621       9.478       9.361       9.250       9.119       8.982       8.843       8.712    
        8.549       8.396       8.263       8.121       7.992       7.833       7.665       7.527       7.375       7.214    
        7.062       6.860       6.635       6.439       6.199       5.966       5.828       5.720       5.602       5.466    
        5.345       5.254       5.050       4.809       4.605       4.291       3.791       3.344       2.963       2.530    
        2.080       1.659       1.380       1.230       1.050      0.8389      0.6198      0.3984      0.1987       0.000    
  33    10.00       9.794       9.641       9.525       9.408       9.277       9.118       8.964       8.813       8.662    
        8.525       8.395       8.261       8.123       7.979       7.853       7.725       7.600       7.463       7.288    
        7.093       6.899       6.716       6.475       6.186       5.939       5.782       5.669       5.534       5.394    
        5.288       5.158       4.957       4.754       4.480       4.072       3.584       3.218       2.858       2.360    
        1.956       1.683       1.461       1.283       1.077      0.8556      0.5871      0.3506      0.1579       0.000    
  34    10.00       9.812       9.686       9.577       9.446       9.284       9.116       8.933       8.765       8.637    
        8.515       8.395       8.274       8.128       7.997       7.871       7.756       7.652       7.508       7.312    
        7.124       6.955       6.759       6.490       6.172       5.899       5.726       5.595       5.470       5.326    
        5.207       5.070       4.898       4.656       4.336       3.851       3.393       3.077       2.659       2.227    
        1.981       1.802       1.588       1.358       1.088      0.7759      0.4744      0.2807      0.1163       0.000    
  35    10.00       9.843       9.729       9.618       9.476       9.294       9.100       8.895       8.736       8.626    
        8.544       8.421       8.281       8.122       7.980       7.887       7.801       7.684       7.525       7.338    
        7.158       6.985       6.792       6.464       6.098       5.838       5.660       5.536       5.403       5.249    
        5.141       5.001       4.809       4.500       4.019       3.539       3.247       2.930       2.511       2.256    
        2.086       1.882       1.667       1.443       1.101      0.6597      0.3642      0.2393      0.1214       0.000    
  36    10.00       9.861       9.762       9.655       9.503       9.284       9.046       8.855       8.741       8.657    
        8.542       8.397       8.265       8.122       7.996       7.903       7.814       7.701       7.573       7.391    
        7.199       7.014       6.756       6.385       6.039       5.783       5.620       5.476       5.307       5.179    
        5.050       4.885       4.586       4.144       3.724       3.413       3.150       2.822       2.497       2.331    
        2.158       1.975       1.758       1.469       1.004      0.5551      0.3419      0.2187      0.1124       0.000    
  37    10.00       9.875       9.798       9.682       9.479       9.238       9.028       8.878       8.784       8.681    
        8.528       8.372       8.256       8.131       8.009       7.916       7.828       7.722       7.580       7.410    
        7.252       7.036       6.697       6.344       6.001       5.713       5.508       5.330       5.176       5.056    
        4.916       4.672       4.240       3.863       3.591       3.330       3.066       2.814       2.586       2.401    
        2.235       2.030       1.783       1.403      0.9189      0.5347      0.3200      0.2034      0.1020       0.000    
  38    10.00       9.893       9.800       9.672       9.461       9.212       9.033       8.922       8.822       8.697    
        8.533       8.369       8.254       8.135       8.011       7.915       7.835       7.738       7.590       7.444    
        7.289       7.011       6.617       6.233       5.872       5.581       5.351       5.157       5.020       4.905    
        4.734       4.340       3.984       3.768       3.509       3.259       3.073       2.867       2.660       2.483    
        2.289       2.010       1.698       1.286      0.8062      0.5118      0.3599      0.2242      0.1006       0.000    
  39    10.00       9.892       9.785       9.651       9.446       9.221       9.059       8.959       8.832       8.692    
        8.558       8.392       8.259       8.144       8.021       7.917       7.823       7.722       7.601       7.466    
        7.263       6.950       6.525       6.089       5.720       5.442       5.177       4.974       4.887       4.767    
        4.473       4.104       3.908       3.668       3.433       3.263       3.115       2.928       2.729       2.565    
        2.283       1.890       1.524       1.081      0.7184      0.5542      0.4124      0.2685      0.1381       0.000    
  40    10.00       9.882       9.788       9.651       9.462       9.272       9.113       8.978       8.828       8.699    
        8.597       8.430       8.260       8.141       8.027       7.903       7.798       7.718       7.609       7.425    
        7.179       6.812       6.380       5.968       5.600       5.303       4.990       4.837       4.757       4.595    
        4.335       4.088       3.827       3.588       3.430       3.288       3.148       2.976       2.794       2.579    
        2.199       1.771       1.376       1.018      0.7704      0.6013      0.4601      0.3247      0.1594       0.000    
  41    10.00       9.898       9.822       9.688       9.493       9.294       9.140       9.018       8.869       8.715    
        8.591       8.433       8.272       8.160       8.023       7.874       7.787       7.695       7.540       7.330    
        7.072       6.711       6.276       5.877       5.506       5.102       4.821       4.746       4.651       4.536    
        4.342       4.043       3.788       3.606       3.453       3.329       3.177       3.014       2.826       2.491    
        2.048       1.633       1.291       1.028      0.8133      0.6564      0.5055      0.3571      0.1880       0.000    
  42    10.00       9.923       9.839       9.709       9.539       9.347       9.172       9.046       8.909       8.734    
        8.573       8.421       8.281       8.172       8.023       7.867       7.756       7.628       7.456       7.215    
        6.916       6.521       6.141       5.739       5.251       4.903       4.771       4.709       4.630       4.511    
        4.284       4.026       3.793       3.613       3.492       3.361       3.227       3.051       2.752       2.309    
        1.923       1.615       1.319       1.022      0.8233      0.6900      0.5453      0.3716      0.2062       0.000    
  43    10.00       9.939       9.848       9.713       9.544       9.383       9.227       9.084       8.911       8.726    
        8.577       8.422       8.283       8.179       8.037       7.853       7.702       7.555       7.321       7.017    
        6.730       6.353       6.006       5.542       5.085       4.864       4.762       4.690       4.617       4.492    
        4.277       4.045       3.824       3.652       3.537       3.408       3.232       2.981       2.545       2.155    
        1.916       1.644       1.332       1.025      0.8146      0.6914      0.5800      0.4017      0.1882       0.000    
  44    10.00       9.931       9.853       9.712       9.557       9.441       9.281       9.082       8.885       8.731    
        8.581       8.422       8.299       8.187       8.017       7.814       7.638       7.463       7.188       6.891    
        6.552       6.181       5.813       5.353       5.015       4.853       4.764       4.704       4.624       4.465    
        4.250       4.066       3.873       3.714       3.597       3.416       3.184       2.825       2.386       2.131    
        1.912       1.628       1.318       1.038      0.8240      0.6930      0.5802      0.3934      0.1733       0.000    
  45    10.00       9.917       9.822       9.708       9.595       9.443       9.272       9.080       8.885       8.728    
        8.570       8.426       8.316       8.185       7.995       7.776       7.578       7.381       7.086       6.740    
        6.354       5.966       5.573       5.239       5.008       4.871       4.785       4.720       4.616       4.488    
        4.303       4.094       3.923       3.758       3.588       3.398       3.145       2.766       2.387       2.089    
        1.841       1.575       1.286       1.036      0.8494      0.7409      0.5725      0.3408      0.1553       0.000    
  46    10.00       9.899       9.801       9.709       9.579       9.404       9.237       9.080       8.886       8.717    
        8.576       8.443       8.330       8.170       7.967       7.770       7.561       7.302       6.987       6.613    
        6.163       5.781       5.470       5.218       5.043       4.921       4.814       4.724       4.642       4.500    
        4.303       4.122       3.953       3.762       3.594       3.416       3.132       2.695       2.300       2.035    
        1.803       1.548       1.278       1.058      0.9142      0.7746      0.5189      0.2551      0.1109       0.000    
  47    10.00       9.892       9.792       9.665       9.513       9.369       9.226       9.055       8.877       8.727    
        8.597       8.477       8.315       8.141       7.959       7.767       7.534       7.234       6.941       6.488    
        6.003       5.707       5.441       5.244       5.081       4.961       4.851       4.743       4.648       4.500    
        4.294       4.115       3.943       3.764       3.621       3.404       3.010       2.620       2.291       2.010    
        1.807       1.567       1.326       1.115      0.9360      0.7103      0.4267      0.2230      9.2888E-02   0.000    
  48    10.00       9.880       9.759       9.623       9.486       9.358       9.213       9.056       8.891       8.743    
        8.611       8.468       8.290       8.111       7.932       7.741       7.517       7.235       6.871       6.423    
        6.007       5.703       5.445       5.264       5.130       4.981       4.869       4.779       4.661       4.460    
        4.258       4.083       3.926       3.795       3.605       3.320       2.947       2.597       2.285       2.039    
        1.820       1.591       1.374       1.135      0.8676      0.5769      0.3646      0.2162      9.7697E-02   0.000    
  49    10.00       9.869       9.737       9.604       9.491       9.359       9.205       9.051       8.918       8.763    
        8.605       8.424       8.249       8.099       7.895       7.709       7.522       7.207       6.848       6.492    
        6.052       5.714       5.457       5.298       5.140       4.980       4.893       4.805       4.614       4.372    
        4.200       4.061       3.949       3.777       3.557       3.304       2.931       2.582       2.338       2.076    
        1.818       1.608       1.377       1.096      0.7680      0.5142      0.3646      0.2353      0.1207       0.000    
  50    10.00       9.874       9.742       9.606       9.483       9.353       9.216       9.064       8.924       8.786    
        8.591       8.402       8.242       8.040       7.833       7.691       7.514       7.269       6.913       6.561    
        6.113       5.687       5.463       5.302       5.137       5.006       4.901       4.783       4.557       4.328    
        4.186       4.072       3.940       3.762       3.559       3.317       2.941       2.583       2.346       2.109    
        1.865       1.600       1.340       1.039      0.7159      0.5262      0.3923      0.2659      0.1604       0.000    

 HEAD WILL BE SAVED ON UNIT   51 AT END OF TIME STEP   5, STRESS PERIOD    2

 DRAWDOWN WILL BE SAVED ON UNIT   52 AT END OF TIME STEP   5, STRESS PERIOD    2
1
  VOLUMETRIC BUDGET FOR ENTIRE MODEL AT END OF TIME STEP  5 IN STRESS PERIOD   2
  ------------------------------------------------------------------------------

     CUMULATIVE VOLUMES      L**3       RATES FOR THIS TIME STEP      L**3/T
     ------------------                 ------------------------

           IN:                                      IN:
           ---                                      ---
             STORAGE =        2500.0090               STORAGE =         500.0007
       CONSTANT HEAD =        2234.7554         CONSTANT HEAD =         372.4594
               WELLS =           0.0000                 WELLS =           0.0000

            TOTAL IN =        4734.7646              TOTAL IN =         872.4601

          OUT:                                     OUT:
          ----                                     ----
             STORAGE =       8.9000E-03               STORAGE =       9.6063E-04
       CONSTANT HEAD =        2234.7544         CONSTANT HEAD =         372.4591
               WELLS =        2500.0000                 WELLS =         500.0000

           TOTAL OUT =        4734.7632             TOTAL OUT =         872.4600

            IN - OUT =       1.4648E-03              IN - OUT =       1.2207E-04

 PERCENT DISCREPANCY =           0.00     PERCENT DISCREPANCY =           0.00






          TIME SUMMARY AT END OF TIME STEP   5 IN STRESS PERIOD    2
                    SECONDS     MINUTES      HOURS       DAYS        YEARS
                    -----------------------------------------------------------
   TIME STEP LENGTH  86400.      1440.0      24.000      1.0000     2.73785E-03
 STRESS PERIOD TIME 4.32000E+05  7200.0      120.00      5.0000     1.36893E-02
         TOTAL TIME 5.18400E+05  8640.0      144.00      6.0000     1.64271E-02
1
 
 SOLVING FOR HEAD 

 OUTPUT CONTROL FOR STRESS PERIOD    2   TIME STEP   6
    SAVE HEAD FOR ALL LAYERS
    SAVE DRAWDOWN FOR ALL LAYERS
    SAVE BUDGET
    PRINT HEAD FOR ALL LAYERS
    PRINT BUDGET
 UBDSV1 SAVING "         STORAGE" ON UNIT  53 AT TIME STEP  6, STRESS PERIOD   2
 UBDSV2 SAVING "   CONSTANT HEAD" ON UNIT  53 AT TIME STEP  6, STRESS PERIOD   2
 UBDSV1 SAVING "FLOW RIGHT FACE " ON UNIT  53 AT TIME STEP  6, STRESS PERIOD   2
 UBDSV1 SAVING "FLOW FRONT FACE " ON UNIT  53 AT TIME STEP  6, STRESS PERIOD   2
1
              HEAD IN LAYER   1 AT END OF TIME STEP   6 IN STRESS PERIOD    2
  ---------------------------------------------------------------------------

            1           2           3           4           5           6           7           8           9          10
           11          12          13          14          15          16          17          18          19          20
           21          22          23          24          25          26          27          28          29          30
           31          32          33          34          35          36          37          38          39          40
           41          42          43          44          45          46          47          48          49          50
 ........................................................................................................................
   1    10.00       9.953       9.906       9.851       9.808       9.771       9.722       9.655       9.581       9.513    
        9.362       9.174       9.035       8.881       8.716       8.549       8.395       8.217       7.979       7.743    
        7.582       7.397       7.154       6.907       6.688       6.495       6.222       5.973       5.797       5.612    
        5.451       5.345       5.228       5.093       4.964       4.804       4.632       4.400       4.135       3.846    
        3.475       3.099       2.607       2.072       1.670       1.381       1.165      0.9189      0.5394       0.000    
   2    10.00       9.948       9.898       9.852       9.815       9.779       9.725       9.656       9.588       9.496    
        9.350       9.181       9.025       8.884       8.732       8.561       8.377       8.195       7.973       7.735    
        7.559       7.408       7.149       6.883       6.688       6.471       6.208       5.970       5.770       5.595    
        5.458       5.359       5.259       5.114       4.964       4.805       4.607       4.391       4.134       3.805    
        3.458       3.137       2.620       2.088       1.732       1.474       1.225      0.9490      0.5728       0.000    
   3    10.00       9.940       9.898       9.866       9.831       9.794       9.735       9.653       9.571       9.471    
        9.338       9.189       9.039       8.897       8.716       8.502       8.324       8.166       7.963       7.754    
        7.573       7.359       7.106       6.872       6.660       6.418       6.170       5.936       5.729       5.597    
        5.481       5.384       5.283       5.124       4.966       4.797       4.602       4.360       4.074       3.821    
        3.512       3.074       2.570       2.187       1.883       1.582       1.276      0.9619      0.5428       0.000    
   4    10.00       9.940       9.903       9.874       9.850       9.811       9.744       9.649       9.552       9.453    
        9.326       9.192       9.042       8.865       8.644       8.446       8.318       8.141       7.945       7.782    
        7.537       7.268       7.046       6.839       6.634       6.348       6.075       5.889       5.744       5.627    
        5.520       5.418       5.309       5.125       4.930       4.778       4.572       4.322       4.075       3.851    
        3.500       3.017       2.635       2.311       1.984       1.642       1.273      0.9056      0.4639       0.000    
   5    10.00       9.945       9.911       9.882       9.860       9.820       9.749       9.642       9.533       9.434    
        9.327       9.190       8.999       8.792       8.605       8.448       8.291       8.126       7.942       7.715    
        7.435       7.213       7.029       6.818       6.561       6.267       6.040       5.905       5.784       5.667    
        5.546       5.421       5.297       5.122       4.923       4.739       4.553       4.353       4.126       3.829    
        3.430       3.060       2.732       2.404       2.046       1.648       1.184      0.7630      0.3950       0.000    
   6    10.00       9.954       9.921       9.893       9.863       9.819       9.743       9.628       9.533       9.428    
        9.308       9.139       8.931       8.759       8.588       8.411       8.252       8.105       7.901       7.647    
        7.399       7.187       7.000       6.744       6.466       6.242       6.056       5.927       5.798       5.678    
        5.570       5.432       5.276       5.096       4.903       4.743       4.578       4.395       4.154       3.833    
        3.481       3.121       2.784       2.453       2.064       1.582       1.082      0.7177      0.3694       0.000    
   7    10.00       9.960       9.931       9.902       9.870       9.817       9.716       9.605       9.507       9.378    
        9.256       9.078       8.890       8.714       8.541       8.364       8.208       8.075       7.845       7.575    
        7.354       7.143       6.936       6.689       6.451       6.244       6.080       5.936       5.801       5.700    
        5.588       5.439       5.272       5.084       4.914       4.771       4.619       4.427       4.177       3.881    
        3.528       3.157       2.806       2.440       2.055       1.549       1.036      0.6838      0.3236       0.000    
   8    10.00       9.967       9.941       9.909       9.872       9.787       9.665       9.560       9.439       9.316    
        9.182       9.002       8.844       8.667       8.475       8.305       8.171       8.016       7.803       7.543    
        7.291       7.097       6.927       6.677       6.436       6.252       6.068       5.918       5.818       5.723    
        5.592       5.443       5.297       5.126       4.940       4.787       4.670       4.519       4.268       3.923    
        3.534       3.202       2.873       2.445       2.016       1.450      0.9598      0.6700      0.3100       0.000    
   9    10.00       9.974       9.945       9.909       9.847       9.736       9.607       9.486       9.380       9.254    
        9.097       8.937       8.782       8.615       8.419       8.261       8.138       7.959       7.752       7.495    
        7.275       7.086       6.857       6.611       6.409       6.247       6.059       5.924       5.826       5.720    
        5.598       5.461       5.322       5.169       5.006       4.851       4.722       4.584       4.322       3.945    
        3.585       3.286       2.937       2.522       1.886       1.248      0.9145      0.5667      0.2162       0.000    
  10    10.00       9.974       9.944       9.894       9.799       9.668       9.526       9.432       9.332       9.185    
        9.048       8.892       8.738       8.561       8.384       8.242       8.081       7.898       7.685       7.479    
        7.266       6.993       6.764       6.569       6.394       6.250       6.079       5.934       5.838       5.739    
        5.605       5.456       5.330       5.185       5.038       4.926       4.793       4.630       4.327       3.951    
        3.664       3.399       2.996       2.371       1.635       1.173      0.8303      0.5068      0.2528       0.000    
  11    10.00       9.974       9.935       9.857       9.751       9.605       9.480       9.402       9.284       9.159    
        9.028       8.866       8.684       8.497       8.349       8.201       8.054       7.861       7.659       7.458    
        7.176       6.916       6.728       6.550       6.382       6.226       6.071       5.947       5.859       5.764    
        5.614       5.470       5.356       5.221       5.090       4.962       4.810       4.633       4.346       4.039    
        3.734       3.386       2.948       2.259       1.569       1.103      0.7784      0.5903      0.3260       0.000    
  12    10.00       9.973       9.917       9.818       9.680       9.537       9.438       9.360       9.258       9.145    
        9.004       8.833       8.653       8.486       8.336       8.175       8.009       7.819       7.619       7.363    
        7.092       6.893       6.711       6.534       6.354       6.198       6.080       5.974       5.866       5.755    
        5.622       5.500       5.395       5.279       5.156       5.025       4.855       4.632       4.362       4.081    
        3.753       3.373       2.773       2.000       1.415       1.087      0.8646      0.6266      0.3570       0.000    
  13    10.00       9.964       9.878       9.743       9.600       9.478       9.399       9.331       9.245       9.138    
        8.991       8.815       8.649       8.517       8.343       8.147       7.957       7.754       7.540       7.299    
        7.065       6.856       6.668       6.491       6.323       6.201       6.105       5.979       5.843       5.744    
        5.647       5.539       5.438       5.330       5.211       5.090       4.927       4.666       4.382       4.049    
        3.672       3.195       2.502       1.876       1.450       1.169      0.9092      0.6282      0.3103       0.000    
  14    10.00       9.934       9.812       9.664       9.533       9.438       9.385       9.324       9.242       9.126    
        8.965       8.817       8.680       8.542       8.353       8.124       7.922       7.697       7.463       7.221    
        7.002       6.802       6.615       6.445       6.303       6.218       6.109       5.964       5.841       5.753    
        5.673       5.570       5.475       5.367       5.254       5.149       4.957       4.686       4.381       3.966    
        3.522       2.963       2.429       1.970       1.544       1.214      0.9254      0.6289      0.2800       0.000    
  15    10.00       9.877       9.743       9.612       9.508       9.435       9.377       9.320       9.240       9.134    
        8.993       8.848       8.717       8.529       8.315       8.102       7.875       7.647       7.378       7.126    
        6.930       6.744       6.568       6.425       6.311       6.211       6.096       5.952       5.844       5.769    
        5.687       5.592       5.509       5.406       5.290       5.173       4.969       4.705       4.323       3.874    
        3.414       2.908       2.473       1.998       1.638       1.286      0.9368      0.6227      0.2553       0.000    
  16    10.00       9.858       9.713       9.594       9.504       9.438       9.380       9.327       9.251       9.142    
        9.012       8.876       8.722       8.495       8.268       8.094       7.877       7.577       7.281       7.049    
        6.849       6.691       6.556       6.425       6.303       6.204       6.083       5.955       5.855       5.771    
        5.700       5.619       5.520       5.424       5.317       5.182       4.990       4.670       4.252       3.840    
        3.442       2.950       2.458       2.038       1.698       1.328      0.9336      0.5578      0.2099       0.000    
  17    10.00       9.840       9.695       9.599       9.520       9.454       9.396       9.337       9.256       9.155    
        9.037       8.872       8.668       8.431       8.244       8.084       7.838       7.517       7.216       6.996    
        6.826       6.658       6.513       6.397       6.287       6.178       6.061       5.959       5.863       5.781    
        5.722       5.641       5.528       5.423       5.314       5.169       4.942       4.664       4.315       3.874    
        3.414       2.893       2.437       2.065       1.717       1.338      0.9533      0.5810      0.2455       0.000    
  18    10.00       9.831       9.695       9.613       9.542       9.478       9.421       9.351       9.271       9.164    
        9.025       8.836       8.614       8.416       8.236       8.016       7.743       7.463       7.202       6.988    
        6.790       6.583       6.451       6.354       6.255       6.139       6.046       5.956       5.881       5.810    
        5.742       5.656       5.532       5.409       5.291       5.132       4.907       4.672       4.364       3.950    
        3.348       2.793       2.421       2.067       1.770       1.371      0.9473      0.5693      0.2451       0.000    
  19    10.00       9.839       9.726       9.642       9.566       9.502       9.435       9.370       9.297       9.175    
        9.013       8.813       8.595       8.381       8.155       7.926       7.679       7.418       7.168       6.946    
        6.726       6.528       6.416       6.330       6.211       6.098       6.015       5.938       5.893       5.839    
        5.765       5.663       5.518       5.386       5.275       5.141       4.916       4.651       4.337       3.853    
        3.248       2.777       2.405       2.057       1.725       1.314      0.9093      0.5655      0.2664       0.000    
  20    10.00       9.849       9.752       9.678       9.605       9.529       9.451       9.380       9.307       9.184    
        9.009       8.803       8.554       8.284       8.034       7.852       7.613       7.340       7.123       6.905    
        6.705       6.533       6.396       6.277       6.137       6.048       5.975       5.915       5.883       5.847    
        5.791       5.660       5.502       5.391       5.273       5.123       4.865       4.596       4.239       3.700    
        3.180       2.802       2.372       1.976       1.616       1.212      0.9116      0.5613      0.2488       0.000    
  21    10.00       9.871       9.784       9.710       9.630       9.557       9.470       9.395       9.315       9.178    
        8.991       8.743       8.439       8.133       7.907       7.747       7.532       7.334       7.131       6.900    
        6.705       6.523       6.354       6.150       6.024       5.968       5.893       5.870       5.861       5.830    
        5.770       5.650       5.516       5.409       5.276       5.054       4.791       4.555       4.042       3.489    
        3.105       2.701       2.264       1.897       1.516       1.163      0.8252      0.4944      0.2483       0.000    
  22    10.00       9.899       9.808       9.727       9.649       9.581       9.483       9.385       9.293       9.153    
        8.928       8.624       8.291       8.011       7.821       7.658       7.496       7.355       7.144       6.922    
        6.723       6.480       6.195       5.954       5.852       5.756       5.741       5.787       5.792       5.772    
        5.727       5.639       5.537       5.426       5.273       5.013       4.731       4.311       3.746       3.397    
        2.988       2.555       2.165       1.813       1.489       1.070      0.7159      0.4740      0.2664       0.000    
  23    10.00       9.900       9.813       9.740       9.658       9.568       9.457       9.369       9.289       9.114    
        8.841       8.518       8.218       7.977       7.786       7.649       7.499       7.322       7.125       6.950    
        6.689       6.332       6.017       5.758       5.390       5.386       5.552       5.642       5.684       5.706    
        5.677       5.624       5.563       5.435       5.243       4.952       4.546       4.072       3.618       3.199    
        2.815       2.459       2.086       1.807       1.397      0.9724      0.6963      0.4558      0.2366       0.000    
  24    10.00       9.922       9.823       9.727       9.633       9.529       9.430       9.355       9.266       9.060    
        8.751       8.448       8.202       7.993       7.812       7.636       7.456       7.298       7.141       6.941    
        6.632       6.275       5.897       5.155       4.312       4.802       5.249       5.481       5.584       5.638    
        5.631       5.610       5.554       5.401       5.190       4.833       4.383       3.983       3.481       3.038    
        2.739       2.398       2.045       1.689       1.250      0.9021      0.6698      0.4269      0.1883       0.000    
  25    10.00       9.915       9.800       9.683       9.573       9.480       9.404       9.329       9.219       9.005    
        8.681       8.400       8.213       8.019       7.811       7.631       7.465       7.328       7.188       6.942    
        6.588       6.228       5.616       4.367       1.635       4.259       4.988       5.371       5.536       5.596    
        5.608       5.591       5.500       5.330       5.117       4.744       4.266       3.807       3.400       3.017    
        2.674       2.304       1.903       1.528       1.112      0.8285      0.6672      0.4151      0.1538       0.000    
  26    10.00       9.893       9.747       9.615       9.527       9.451       9.377       9.284       9.153       8.889    
        8.589       8.395       8.216       8.023       7.829       7.657       7.502       7.369       7.197       6.937    
        6.626       6.234       5.702       5.040       4.405       4.743       5.160       5.413       5.536       5.585    
        5.589       5.544       5.432       5.262       5.026       4.625       4.117       3.744       3.409       2.992    
        2.631       2.213       1.752       1.351       1.011      0.8111      0.6313      0.3701      0.1575       0.000    
  27    10.00       9.870       9.714       9.591       9.517       9.418       9.320       9.203       9.028       8.779    
        8.569       8.397       8.215       8.027       7.835       7.698       7.592       7.412       7.192       6.924    
        6.651       6.375       5.967       5.555       5.217       5.269       5.409       5.511       5.567       5.583    
        5.559       5.485       5.378       5.192       4.922       4.498       4.100       3.768       3.377       2.984    
        2.609       2.104       1.578       1.202      0.9653      0.7981      0.6005      0.3914      0.1887       0.000    
  28    10.00       9.853       9.738       9.600       9.474       9.353       9.245       9.108       8.935       8.742    
        8.569       8.414       8.232       8.021       7.851       7.741       7.619       7.415       7.151       6.903    
        6.716       6.517       6.215       5.915       5.709       5.630       5.605       5.607       5.609       5.575    
        5.514       5.449       5.325       5.115       4.804       4.439       4.128       3.743       3.339       2.945    
        2.490       2.016       1.494       1.120      0.9548      0.7951      0.6192      0.4088      0.1895       0.000    
  29    10.00       9.858       9.715       9.569       9.417       9.301       9.179       9.027       8.882       8.730    
        8.574       8.419       8.239       8.058       7.911       7.779       7.612       7.378       7.135       6.944    
        6.791       6.621       6.381       6.118       5.944       5.836       5.750       5.685       5.627       5.555    
        5.487       5.395       5.260       5.032       4.711       4.415       4.135       3.779       3.330       2.833    
        2.419       1.915       1.396       1.104      0.9579      0.8008      0.6146      0.3994      0.1986       0.000    
  30    10.00       9.837       9.693       9.517       9.364       9.257       9.127       8.993       8.880       8.742    
        8.580       8.409       8.242       8.096       7.962       7.807       7.588       7.368       7.177       7.003    
        6.875       6.711       6.487       6.253       6.051       5.929       5.821       5.715       5.628       5.539    
        5.444       5.347       5.197       4.941       4.674       4.447       4.167       3.709       3.165       2.670    
        2.257       1.799       1.405       1.134      0.9799      0.8028      0.6038      0.4187      0.2053       0.000    
  31    10.00       9.815       9.648       9.481       9.343       9.232       9.108       8.989       8.875       8.738    
        8.575       8.399       8.253       8.127       7.994       7.813       7.594       7.408       7.260       7.109    
        6.970       6.777       6.544       6.345       6.131       5.946       5.819       5.709       5.620       5.514    
        5.405       5.292       5.122       4.899       4.657       4.417       3.993       3.504       3.061       2.583    
        2.195       1.740       1.358       1.163      0.9983      0.8315      0.6244      0.4193      0.1987       0.000    
  32    10.00       9.800       9.621       9.478       9.361       9.250       9.119       8.982       8.843       8.712    
        8.549       8.395       8.262       8.120       7.990       7.830       7.660       7.519       7.363       7.198    
        7.044       6.840       6.611       6.411       6.171       5.938       5.805       5.699       5.585       5.453    
        5.336       5.246       5.045       4.807       4.603       4.290       3.791       3.344       2.963       2.530    
        2.080       1.659       1.380       1.230       1.050      0.8389      0.6198      0.3984      0.1987       0.000    
  33    10.00       9.794       9.641       9.525       9.407       9.277       9.118       8.964       8.812       8.662    
        8.525       8.394       8.260       8.122       7.977       7.851       7.722       7.595       7.456       7.279    
        7.083       6.888       6.702       6.459       6.170       5.922       5.766       5.655       5.523       5.386    
        5.281       5.153       4.954       4.753       4.479       4.072       3.584       3.218       2.858       2.360    
        1.956       1.683       1.461       1.283       1.077      0.8556      0.5871      0.3506      0.1579       0.000    
  34    10.00       9.812       9.686       9.577       9.446       9.284       9.116       8.933       8.765       8.637    
        8.515       8.395       8.273       8.127       7.995       7.869       7.753       7.649       7.504       7.307    
        7.118       6.948       6.751       6.481       6.163       5.889       5.716       5.586       5.463       5.320    
        5.202       5.067       4.895       4.654       4.336       3.851       3.393       3.077       2.659       2.227    
        1.981       1.802       1.588       1.358       1.088      0.7759      0.4744      0.2807      0.1163       0.000    
  35    10.00       9.843       9.729       9.618       9.476       9.294       9.100       8.895       8.735       8.626    
        8.544       8.421       8.281       8.122       7.979       7.886       7.799       7.682       7.523       7.335    
        7.155       6.980       6.787       6.459       6.093       5.833       5.654       5.530       5.398       5.245    
        5.138       4.999       4.808       4.499       4.018       3.539       3.247       2.930       2.511       2.256    
        2.086       1.882       1.667       1.443       1.101      0.6597      0.3642      0.2393      0.1214       0.000    
  36    10.00       9.861       9.762       9.655       9.503       9.284       9.046       8.855       8.741       8.657    
        8.542       8.397       8.265       8.121       7.995       7.902       7.813       7.700       7.571       7.389    
        7.197       7.012       6.754       6.383       6.036       5.779       5.616       5.473       5.304       5.177    
        5.048       4.883       4.585       4.144       3.724       3.413       3.150       2.822       2.497       2.331    
        2.158       1.975       1.758       1.469       1.004      0.5551      0.3419      0.2187      0.1124       0.000    
  37    10.00       9.875       9.798       9.682       9.479       9.238       9.028       8.878       8.784       8.681    
        8.528       8.372       8.255       8.130       8.008       7.915       7.827       7.722       7.580       7.410    
        7.251       7.034       6.696       6.343       6.000       5.711       5.506       5.328       5.174       5.055    
        4.915       4.671       4.239       3.863       3.591       3.330       3.066       2.814       2.586       2.401    
        2.235       2.030       1.783       1.403      0.9189      0.5347      0.3200      0.2034      0.1020       0.000    
  38    10.00       9.893       9.800       9.672       9.461       9.212       9.033       8.922       8.822       8.697    
        8.533       8.369       8.253       8.135       8.011       7.915       7.834       7.737       7.589       7.444    
        7.288       7.011       6.616       6.233       5.871       5.581       5.351       5.157       5.020       4.905    
        4.734       4.340       3.984       3.768       3.509       3.259       3.073       2.867       2.660       2.483    
        2.289       2.010       1.698       1.286      0.8062      0.5118      0.3599      0.2242      0.1006       0.000    
  39    10.00       9.892       9.785       9.651       9.446       9.221       9.059       8.959       8.832       8.692    
        8.558       8.392       8.259       8.143       8.021       7.916       7.823       7.722       7.601       7.466    
        7.263       6.950       6.525       6.089       5.720       5.442       5.176       4.974       4.887       4.766    
        4.473       4.104       3.908       3.668       3.433       3.263       3.115       2.928       2.729       2.565    
        2.283       1.890       1.524       1.081      0.7184      0.5542      0.4124      0.2685      0.1381       0.000    
  40    10.00       9.882       9.788       9.651       9.462       9.272       9.113       8.978       8.828       8.699    
        8.597       8.430       8.260       8.141       8.027       7.903       7.798       7.718       7.608       7.425    
        7.179       6.812       6.380       5.968       5.600       5.303       4.990       4.837       4.757       4.595    
        4.335       4.087       3.826       3.588       3.430       3.288       3.148       2.976       2.794       2.579    
        2.199       1.771       1.376       1.018      0.7704      0.6013      0.4601      0.3247      0.1594       0.000    
  41    10.00       9.898       9.822       9.688       9.493       9.294       9.140       9.018       8.869       8.715    
        8.591       8.433       8.272       8.160       8.023       7.873       7.787       7.695       7.539       7.330    
        7.072       6.711       6.276       5.877       5.506       5.102       4.821       4.746       4.651       4.536    
        4.342       4.043       3.788       3.606       3.453       3.329       3.177       3.014       2.826       2.491    
        2.048       1.633       1.291       1.028      0.8133      0.6564      0.5055      0.3571      0.1880       0.000    
  42    10.00       9.923       9.839       9.709       9.539       9.347       9.172       9.046       8.909       8.734    
        8.573       8.421       8.281       8.172       8.023       7.867       7.756       7.628       7.456       7.215    
        6.915       6.521       6.141       5.739       5.251       4.903       4.771       4.709       4.630       4.511    
        4.284       4.026       3.793       3.612       3.492       3.361       3.227       3.051       2.752       2.309    
        1.923       1.615       1.319       1.022      0.8233      0.6900      0.5453      0.3716      0.2062       0.000    
  43    10.00       9.939       9.848       9.713       9.544       9.383       9.227       9.084       8.911       8.726    
        8.577       8.422       8.283       8.179       8.037       7.853       7.702       7.555       7.321       7.017    
        6.730       6.353       6.006       5.542       5.085       4.864       4.762       4.690       4.617       4.492    
        4.277       4.045       3.824       3.652       3.537       3.408       3.232       2.981       2.545       2.155    
        1.916       1.644       1.332       1.025      0.8146      0.6914      0.5800      0.4017      0.1882       0.000    
  44    10.00       9.931       9.853       9.712       9.557       9.441       9.281       9.082       8.885       8.731    
        8.581       8.422       8.299       8.187       8.017       7.814       7.638       7.463       7.188       6.891    
        6.552       6.181       5.813       5.353       5.015       4.853       4.764       4.704       4.624       4.465    
        4.250       4.066       3.873       3.714       3.597       3.416       3.184       2.825       2.386       2.131    
        1.912       1.628       1.318       1.038      0.8240      0.6930      0.5802      0.3934      0.1733       0.000    
  45    10.00       9.917       9.822       9.708       9.595       9.443       9.272       9.080       8.885       8.728    
        8.570       8.426       8.316       8.185       7.995       7.776       7.578       7.381       7.086       6.740    
        6.354       5.966       5.573       5.239       5.008       4.871       4.785       4.720       4.616       4.488    
        4.303       4.094       3.923       3.758       3.588       3.398       3.145       2.766       2.387       2.089    
        1.841       1.575       1.286       1.036      0.8494      0.7409      0.5725      0.3408      0.1553       0.000    
  46    10.00       9.899       9.801       9.709       9.579       9.404       9.237       9.080       8.886       8.717    
        8.576       8.443       8.330       8.170       7.967       7.770       7.561       7.302       6.987       6.613    
        6.163       5.781       5.470       5.218       5.043       4.921       4.814       4.724       4.642       4.500    
        4.303       4.122       3.953       3.762       3.594       3.416       3.132       2.695       2.300       2.035    
        1.803       1.548       1.278       1.058      0.9142      0.7746      0.5189      0.2551      0.1109       0.000    
  47    10.00       9.892       9.792       9.665       9.513       9.369       9.226       9.055       8.877       8.727    
        8.597       8.477       8.315       8.141       7.959       7.767       7.534       7.234       6.941       6.488    
        6.003       5.707       5.441       5.244       5.081       4.961       4.851       4.743       4.648       4.500    
        4.294       4.115       3.943       3.764       3.621       3.404       3.010       2.620       2.291       2.010    
        1.807       1.567       1.326       1.115      0.9360      0.7103      0.4267      0.2230      9.2888E-02   0.000    
  48    10.00       9.880       9.759       9.623       9.486       9.358       9.213       9.056       8.891       8.743    
        8.611       8.468       8.290       8.111       7.932       7.741       7.517       7.235       6.871       6.423    
        6.007       5.703       5.445       5.264       5.130       4.981       4.869       4.779       4.661       4.460    
        4.258       4.083       3.926       3.795       3.605       3.320       2.947       2.597       2.285       2.039    
        1.820       1.591       1.374       1.135      0.8676      0.5769      0.3646      0.2162      9.7697E-02   0.000    
  49    10.00       9.869       9.737       9.604       9.491       9.359       9.205       9.051       8.918       8.763    
        8.605       8.424       8.249       8.099       7.895       7.709       7.522       7.207       6.848       6.492    
        6.052       5.714       5.457       5.298       5.140       4.980       4.893       4.805       4.614       4.372    
        4.200       4.061       3.949       3.777       3.557       3.304       2.931       2.582       2.338       2.076    
        1.818       1.608       1.377       1.096      0.7680      0.5142      0.3646      0.2353      0.1207       0.000    
  50    10.00       9.874       9.742       9.606       9.483       9.353       9.216       9.064       8.924       8.786    
        8.591       8.402       8.242       8.040       7.833       7.691       7.514       7.269       6.913       6.561    
        6.113       5.687       5.463       5.302       5.137       5.006       4.901       4.783       4.557       4.328    
        4.186       4.072       3.940       3.762       3.559       3.317       2.941       2.583       2.346       2.109    
        1.865       1.600       1.340       1.039      0.7159      0.5262      0.3923      0.2659      0.1604       0.000    

 HEAD WILL BE SAVED ON UNIT   51 AT END OF TIME STEP   6, STRESS PERIOD    2

 DRAWDOWN WILL BE SAVED ON UNIT   52 AT END OF TIME STEP   6, STRESS PERIOD    2
1
  VOLUMETRIC BUDGET FOR ENTIRE MODEL AT END OF TIME STEP  6 IN STRESS PERIOD   2
  ------------------------------------------------------------------------------

     CUMULATIVE VOLUMES      L**3       RATES FOR THIS TIME STEP      L**3/T
     ------------------                 ------------------------

           IN:                                      IN:
           ---                                      ---
             STORAGE =        3000.0090               STORAGE =         499.9999
       CONSTANT HEAD =        2607.2156         CONSTANT HEAD =         372.4601
               WELLS =           0.0000                 WELLS =           0.0000

            TOTAL IN =        5607.2246              TOTAL IN =         872.4601

          OUT:                                     OUT:
          ----                                     ----
             STORAGE =       9.6290E-03               STORAGE =       7.2900E-04
       CONSTANT HEAD =        2607.2134         CONSTANT HEAD =         372.4591
               WELLS =        3000.0000                 WELLS =         500.0000

           TOTAL OUT =        5607.2231             TOTAL OUT =         872.4598

            IN - OUT =       1.4648E-03              IN - OUT =       3.0518E-04

 PERCENT DISCREPANCY =           0.00     PERCENT DISCREPANCY =           0.00






          TIME SUMMARY AT END OF TIME STEP   6 IN STRESS PERIOD    2
                    SECONDS     MINUTES      HOURS       DAYS        YEARS
                    -----------------------------------------------------------
   TIME STEP LENGTH  86400.      1440.0      24.000      1.0000     2.73785E-03
 STRESS PERIOD TIME 5.18400E+05  8640.0      144.00      6.0000     1.64271E-02
         TOTAL TIME 6.04800E+05  10080.      168.00      7.0000     1.91650E-02
1
 
 SOLVING FOR HEAD 

 OUTPUT CONTROL FOR STRESS PERIOD    2   TIME STEP   7
    SAVE HEAD FOR ALL LAYERS
    SAVE DRAWDOWN FOR ALL LAYERS
    SAVE BUDGET
    PRINT HEAD FOR ALL LAYERS
    PRINT BUDGET
 UBDSV1 SAVING "         STORAGE" ON UNIT  53 AT TIME STEP  7, STRESS PERIOD   2
 UBDSV2 SAVING "   CONSTANT HEAD" ON UNIT  53 AT TIME STEP  7, STRESS PERIOD   2
 UBDSV1 SAVING "FLOW RIGHT FACE " ON UNIT  53 AT TIME STEP  7, STRESS PERIOD   2
 UBDSV1 SAVING "FLOW FRONT FACE " ON UNIT  53 AT TIME STEP  7, STRESS PERIOD   2
1
              HEAD IN LAYER   1 AT END OF TIME STEP   7 IN STRESS PERIOD    2
  ---------------------------------------------------------------------------

            1           2           3           4           5           6           7           8           9          10
           11          12          13          14          15          16          17          18          19          20
           21          22          23          24          25          26          27          28          29          30
           31          32          33          34          35          36          37          38          39          40
           41          42          43          44          45          46          47          48          49          50
 ........................................................................................................................
   1    10.00       9.953       9.906       9.851       9.808       9.771       9.722       9.655       9.581       9.513    
        9.362       9.174       9.035       8.881       8.716       8.549       8.395       8.217       7.979       7.743    
        7.582       7.397       7.154       6.907       6.688       6.495       6.222       5.973       5.797       5.612    
        5.451       5.345       5.228       5.093       4.964       4.804       4.632       4.400       4.135       3.846    
        3.475       3.099       2.607       2.072       1.670       1.381       1.165      0.9189      0.5394       0.000    
   2    10.00       9.948       9.898       9.852       9.815       9.779       9.725       9.656       9.588       9.496    
        9.350       9.181       9.025       8.884       8.732       8.561       8.377       8.195       7.973       7.735    
        7.559       7.408       7.149       6.883       6.688       6.471       6.208       5.970       5.770       5.595    
        5.458       5.359       5.259       5.114       4.964       4.805       4.607       4.391       4.134       3.805    
        3.458       3.137       2.620       2.088       1.732       1.474       1.225      0.9490      0.5728       0.000    
   3    10.00       9.940       9.898       9.866       9.831       9.794       9.735       9.653       9.571       9.471    
        9.338       9.189       9.039       8.897       8.716       8.502       8.324       8.166       7.963       7.754    
        7.573       7.359       7.106       6.872       6.660       6.418       6.170       5.936       5.729       5.596    
        5.481       5.384       5.283       5.124       4.966       4.797       4.602       4.360       4.074       3.821    
        3.512       3.074       2.570       2.187       1.883       1.582       1.276      0.9619      0.5428       0.000    
   4    10.00       9.940       9.903       9.874       9.850       9.811       9.744       9.649       9.552       9.453    
        9.326       9.192       9.042       8.865       8.644       8.446       8.318       8.141       7.945       7.782    
        7.537       7.268       7.046       6.839       6.634       6.348       6.075       5.889       5.743       5.626    
        5.520       5.418       5.309       5.125       4.930       4.778       4.572       4.322       4.075       3.851    
        3.500       3.017       2.635       2.311       1.984       1.642       1.273      0.9056      0.4639       0.000    
   5    10.00       9.945       9.911       9.882       9.860       9.820       9.749       9.642       9.533       9.434    
        9.327       9.190       8.999       8.792       8.605       8.448       8.291       8.126       7.942       7.715    
        7.435       7.213       7.029       6.818       6.561       6.267       6.040       5.905       5.784       5.667    
        5.545       5.421       5.297       5.122       4.923       4.739       4.553       4.353       4.126       3.829    
        3.430       3.060       2.732       2.404       2.046       1.648       1.184      0.7630      0.3950       0.000    
   6    10.00       9.954       9.921       9.893       9.863       9.819       9.743       9.628       9.533       9.428    
        9.308       9.139       8.931       8.759       8.588       8.411       8.252       8.105       7.901       7.647    
        7.399       7.187       7.000       6.744       6.466       6.242       6.055       5.927       5.798       5.678    
        5.570       5.432       5.276       5.096       4.903       4.743       4.578       4.395       4.154       3.833    
        3.481       3.121       2.784       2.453       2.064       1.582       1.082      0.7177      0.3694       0.000    
   7    10.00       9.960       9.931       9.902       9.870       9.817       9.716       9.605       9.507       9.378    
        9.256       9.078       8.890       8.714       8.541       8.364       8.208       8.075       7.845       7.575    
        7.354       7.143       6.936       6.689       6.451       6.244       6.080       5.936       5.801       5.699    
        5.588       5.439       5.272       5.084       4.914       4.771       4.619       4.427       4.177       3.881    
        3.528       3.157       2.806       2.440       2.055       1.549       1.036      0.6838      0.3236       0.000    
   8    10.00       9.967       9.941       9.909       9.872       9.787       9.665       9.560       9.439       9.316    
        9.182       9.002       8.844       8.667       8.475       8.305       8.171       8.016       7.803       7.543    
        7.291       7.097       6.927       6.677       6.436       6.251       6.068       5.917       5.818       5.723    
        5.591       5.442       5.297       5.126       4.939       4.787       4.670       4.519       4.267       3.923    
        3.534       3.202       2.873       2.445       2.016       1.450      0.9598      0.6700      0.3100       0.000    
   9    10.00       9.974       9.945       9.909       9.847       9.736       9.607       9.486       9.380       9.254    
        9.097       8.937       8.782       8.615       8.419       8.261       8.138       7.959       7.752       7.495    
        7.274       7.085       6.857       6.610       6.408       6.246       6.059       5.923       5.825       5.720    
        5.598       5.460       5.321       5.169       5.006       4.851       4.722       4.584       4.322       3.945    
        3.585       3.286       2.937       2.522       1.886       1.248      0.9145      0.5667      0.2162       0.000    
  10    10.00       9.974       9.944       9.894       9.799       9.668       9.526       9.432       9.332       9.185    
        9.048       8.892       8.738       8.561       8.384       8.242       8.081       7.898       7.685       7.478    
        7.266       6.993       6.763       6.568       6.393       6.249       6.078       5.932       5.837       5.738    
        5.604       5.455       5.329       5.184       5.037       4.926       4.792       4.630       4.327       3.951    
        3.664       3.399       2.996       2.371       1.635       1.173      0.8303      0.5068      0.2528       0.000    
  11    10.00       9.974       9.935       9.857       9.751       9.605       9.480       9.402       9.284       9.159    
        9.028       8.866       8.684       8.497       8.349       8.201       8.054       7.861       7.659       7.458    
        7.175       6.914       6.726       6.548       6.380       6.224       6.069       5.945       5.857       5.762    
        5.612       5.468       5.354       5.220       5.089       4.962       4.810       4.632       4.346       4.039    
        3.734       3.386       2.948       2.259       1.569       1.103      0.7784      0.5903      0.3260       0.000    
  12    10.00       9.973       9.917       9.818       9.680       9.537       9.438       9.360       9.258       9.145    
        9.004       8.833       8.653       8.486       8.336       8.174       8.009       7.818       7.618       7.362    
        7.091       6.891       6.709       6.531       6.351       6.194       6.076       5.971       5.863       5.752    
        5.620       5.498       5.393       5.277       5.155       5.025       4.854       4.631       4.361       4.081    
        3.753       3.373       2.773       2.000       1.415       1.087      0.8646      0.6266      0.3570       0.000    
  13    10.00       9.964       9.878       9.743       9.600       9.478       9.399       9.331       9.245       9.138    
        8.991       8.814       8.649       8.516       8.343       8.147       7.956       7.753       7.539       7.297    
        7.062       6.853       6.664       6.487       6.317       6.196       6.100       5.974       5.838       5.739    
        5.643       5.535       5.435       5.328       5.210       5.089       4.927       4.666       4.382       4.049    
        3.672       3.195       2.502       1.876       1.450       1.169      0.9092      0.6282      0.3103       0.000    
  14    10.00       9.934       9.812       9.664       9.533       9.438       9.385       9.324       9.242       9.126    
        8.965       8.817       8.680       8.542       8.353       8.124       7.921       7.696       7.461       7.219    
        6.998       6.797       6.609       6.438       6.296       6.211       6.102       5.957       5.834       5.747    
        5.667       5.565       5.472       5.365       5.252       5.148       4.956       4.686       4.381       3.966    
        3.522       2.963       2.429       1.970       1.544       1.214      0.9254      0.6289      0.2800       0.000    
  15    10.00       9.877       9.743       9.612       9.508       9.435       9.377       9.320       9.240       9.134    
        8.993       8.848       8.717       8.529       8.315       8.101       7.875       7.645       7.376       7.122    
        6.924       6.736       6.558       6.414       6.300       6.201       6.087       5.943       5.836       5.761    
        5.680       5.586       5.504       5.402       5.287       5.172       4.968       4.705       4.323       3.874    
        3.414       2.908       2.473       1.998       1.638       1.286      0.9368      0.6227      0.2553       0.000    
  16    10.00       9.858       9.713       9.594       9.504       9.438       9.380       9.327       9.251       9.142    
        9.012       8.876       8.721       8.495       8.268       8.094       7.876       7.575       7.277       7.043    
        6.839       6.679       6.542       6.411       6.288       6.190       6.069       5.941       5.843       5.760    
        5.690       5.611       5.515       5.420       5.314       5.180       4.989       4.670       4.252       3.840    
        3.442       2.950       2.458       2.038       1.698       1.328      0.9336      0.5578      0.2099       0.000    
  17    10.00       9.840       9.695       9.599       9.520       9.454       9.396       9.337       9.256       9.155    
        9.037       8.872       8.668       8.431       8.243       8.083       7.836       7.514       7.210       6.986    
        6.813       6.641       6.493       6.375       6.265       6.156       6.040       5.940       5.846       5.767    
        5.711       5.632       5.522       5.418       5.311       5.167       4.941       4.663       4.315       3.874    
        3.413       2.893       2.437       2.065       1.717       1.338      0.9533      0.5810      0.2455       0.000    
  18    10.00       9.831       9.695       9.613       9.542       9.478       9.421       9.351       9.271       9.164    
        9.025       8.836       8.613       8.416       8.235       8.014       7.739       7.457       7.193       6.974    
        6.771       6.557       6.422       6.323       6.224       6.108       6.017       5.929       5.857       5.791    
        5.727       5.644       5.525       5.404       5.287       5.130       4.906       4.671       4.364       3.950    
        3.348       2.793       2.421       2.067       1.770       1.371      0.9473      0.5693      0.2451       0.000    
  19    10.00       9.839       9.726       9.642       9.566       9.502       9.435       9.370       9.297       9.175    
        9.013       8.813       8.595       8.380       8.153       7.923       7.673       7.409       7.154       6.926    
        6.699       6.495       6.380       6.293       6.173       6.060       5.980       5.905       5.863       5.814    
        5.746       5.650       5.510       5.381       5.271       5.139       4.914       4.650       4.337       3.853    
        3.248       2.777       2.405       2.057       1.725       1.314      0.9093      0.5655      0.2664       0.000    
  20    10.00       9.849       9.752       9.678       9.605       9.529       9.451       9.380       9.307       9.184    
        9.009       8.803       8.553       8.282       8.031       7.848       7.605       7.327       7.104       6.879    
        6.672       6.496       6.355       6.233       6.091       6.003       5.933       5.877       5.849       5.817    
        5.766       5.644       5.493       5.385       5.269       5.120       4.864       4.595       4.239       3.700    
        3.180       2.802       2.372       1.976       1.616       1.212      0.9116      0.5613      0.2488       0.000    
  21    10.00       9.871       9.784       9.710       9.630       9.557       9.470       9.395       9.315       9.177    
        8.990       8.743       8.439       8.131       7.903       7.741       7.521       7.319       7.110       6.870    
        6.668       6.480       6.306       6.094       5.967       5.913       5.840       5.825       5.821       5.795    
        5.742       5.631       5.505       5.401       5.271       5.052       4.790       4.554       4.042       3.489    
        3.105       2.701       2.264       1.897       1.516       1.163      0.8252      0.4944      0.2483       0.000    
  22    10.00       9.899       9.808       9.727       9.649       9.581       9.483       9.385       9.293       9.153    
        8.928       8.623       8.289       8.007       7.815       7.650       7.484       7.339       7.120       6.888    
        6.681       6.426       6.131       5.885       5.783       5.687       5.676       5.730       5.743       5.730    
        5.693       5.615       5.521       5.416       5.268       5.011       4.730       4.311       3.746       3.397    
        2.988       2.555       2.165       1.813       1.489       1.070      0.7159      0.4740      0.2664       0.000    
  23    10.00       9.900       9.813       9.740       9.658       9.568       9.457       9.369       9.289       9.113    
        8.841       8.517       8.216       7.974       7.779       7.640       7.486       7.303       7.096       6.913    
        6.638       6.264       5.938       5.676       5.302       5.300       5.474       5.572       5.624       5.656    
        5.638       5.594       5.541       5.424       5.238       4.950       4.546       4.071       3.618       3.199    
        2.815       2.459       2.086       1.807       1.397      0.9724      0.6963      0.4558      0.2366       0.000    
  24    10.00       9.922       9.823       9.727       9.633       9.529       9.430       9.355       9.266       9.060    
        8.751       8.447       8.200       7.990       7.806       7.627       7.441       7.276       7.112       6.901    
        6.575       6.201       5.810       5.053       4.204       4.699       5.157       5.401       5.516       5.584    
        5.588       5.575       5.529       5.387       5.184       4.832       4.382       3.983       3.481       3.038    
        2.739       2.398       2.045       1.689       1.250      0.9021      0.6698      0.4269      0.1883       0.000    
  25    10.00       9.915       9.800       9.683       9.573       9.480       9.404       9.329       9.219       9.005    
        8.681       8.399       8.211       8.016       7.805       7.622       7.450       7.308       7.160       6.900    
        6.525       6.148       5.517       4.252       1.513       4.149       4.889       5.287       5.466       5.540    
        5.562       5.554       5.476       5.318       5.111       4.742       4.266       3.807       3.400       3.017    
        2.674       2.304       1.903       1.528       1.112      0.8285      0.6672      0.4151      0.1538       0.000    
  26    10.00       9.893       9.747       9.615       9.527       9.451       9.377       9.284       9.153       8.888    
        8.589       8.394       8.214       8.020       7.824       7.648       7.489       7.350       7.169       6.894    
        6.565       6.154       5.605       4.932       4.294       4.635       5.063       5.330       5.466       5.528    
        5.543       5.509       5.410       5.250       5.020       4.623       4.116       3.744       3.408       2.992    
        2.631       2.213       1.752       1.351       1.011      0.8111      0.6313      0.3701      0.1575       0.000    
  27    10.00       9.870       9.714       9.591       9.517       9.418       9.320       9.203       9.028       8.779    
        8.568       8.396       8.214       8.024       7.830       7.690       7.581       7.395       7.165       6.882    
        6.594       6.304       5.881       5.459       5.116       5.171       5.320       5.432       5.500       5.528    
        5.518       5.457       5.359       5.181       4.917       4.497       4.100       3.767       3.377       2.984    
        2.609       2.104       1.578       1.202      0.9653      0.7981      0.6005      0.3914      0.1887       0.000    
  28    10.00       9.853       9.738       9.600       9.474       9.353       9.245       9.108       8.934       8.742    
        8.569       8.413       8.231       8.018       7.846       7.734       7.609       7.398       7.123       6.863    
        6.666       6.457       6.142       5.833       5.623       5.546       5.525       5.535       5.549       5.531    
        5.482       5.425       5.309       5.106       4.800       4.437       4.127       3.742       3.339       2.945    
        2.490       2.016       1.494       1.120      0.9548      0.7951      0.6192      0.4088      0.1895       0.000    
  29    10.00       9.857       9.715       9.569       9.417       9.301       9.179       9.027       8.881       8.729    
        8.574       8.418       8.238       8.056       7.907       7.772       7.602       7.361       7.108       6.908    
        6.747       6.569       6.319       6.049       5.872       5.766       5.684       5.628       5.582       5.522    
        5.461       5.375       5.247       5.025       4.708       4.414       4.135       3.779       3.330       2.833    
        2.419       1.915       1.396       1.104      0.9579      0.8008      0.6146      0.3994      0.1986       0.000    
  30    10.00       9.837       9.693       9.517       9.364       9.257       9.127       8.993       8.880       8.742    
        8.580       8.409       8.241       8.094       7.959       7.802       7.579       7.351       7.153       6.971    
        6.837       6.666       6.436       6.197       5.992       5.873       5.771       5.674       5.595       5.512    
        5.423       5.331       5.187       4.935       4.671       4.446       4.166       3.709       3.165       2.670    
        2.257       1.799       1.405       1.134      0.9799      0.8028      0.6038      0.4187      0.2053       0.000    
  31    10.00       9.815       9.648       9.481       9.343       9.232       9.108       8.989       8.875       8.737    
        8.575       8.399       8.252       8.125       7.991       7.808       7.585       7.394       7.241       7.084    
        6.941       6.742       6.505       6.303       6.086       5.904       5.784       5.679       5.593       5.493    
        5.389       5.280       5.114       4.894       4.655       4.416       3.993       3.504       3.061       2.583    
        2.195       1.740       1.358       1.163      0.9983      0.8315      0.6244      0.4193      0.1987       0.000    
  32    10.00       9.800       9.621       9.478       9.361       9.250       9.119       8.982       8.843       8.712    
        8.548       8.395       8.261       8.118       7.988       7.826       7.653       7.509       7.350       7.181    
        7.024       6.819       6.586       6.381       6.141       5.909       5.779       5.676       5.565       5.438    
        5.324       5.237       5.039       4.804       4.602       4.290       3.791       3.344       2.963       2.530    
        2.080       1.659       1.380       1.230       1.050      0.8389      0.6198      0.3984      0.1987       0.000    
  33    10.00       9.794       9.641       9.525       9.407       9.277       9.118       8.964       8.812       8.661    
        8.524       8.394       8.260       8.121       7.975       7.847       7.717       7.588       7.447       7.269    
        7.071       6.875       6.686       6.440       6.151       5.903       5.748       5.639       5.509       5.375    
        5.272       5.147       4.950       4.750       4.478       4.072       3.584       3.218       2.858       2.360    
        1.956       1.683       1.461       1.283       1.077      0.8556      0.5871      0.3506      0.1579       0.000    
  34    10.00       9.812       9.686       9.577       9.446       9.284       9.115       8.933       8.765       8.637    
        8.515       8.395       8.272       8.126       7.994       7.867       7.750       7.644       7.499       7.301    
        7.111       6.939       6.742       6.470       6.152       5.877       5.704       5.576       5.453       5.313    
        5.196       5.063       4.892       4.653       4.335       3.851       3.393       3.077       2.659       2.227    
        1.981       1.802       1.588       1.358       1.088      0.7759      0.4744      0.2807      0.1163       0.000    
  35    10.00       9.843       9.729       9.618       9.476       9.294       9.100       8.895       8.735       8.626    
        8.544       8.420       8.280       8.121       7.977       7.884       7.797       7.679       7.519       7.331    
        7.150       6.975       6.781       6.453       6.087       5.826       5.646       5.523       5.392       5.240    
        5.133       4.995       4.805       4.498       4.018       3.539       3.247       2.930       2.511       2.256    
        2.086       1.882       1.667       1.443       1.101      0.6597      0.3642      0.2393      0.1214       0.000    
  36    10.00       9.861       9.762       9.655       9.503       9.284       9.046       8.855       8.741       8.657    
        8.542       8.396       8.264       8.121       7.994       7.901       7.811       7.698       7.569       7.387    
        7.194       7.008       6.750       6.380       6.032       5.775       5.611       5.468       5.300       5.173    
        5.045       4.881       4.584       4.143       3.724       3.413       3.150       2.822       2.497       2.331    
        2.158       1.975       1.758       1.469       1.004      0.5551      0.3419      0.2187      0.1124       0.000    
  37    10.00       9.875       9.798       9.682       9.479       9.238       9.028       8.878       8.784       8.681    
        8.528       8.372       8.255       8.130       8.008       7.914       7.826       7.720       7.578       7.408    
        7.250       7.033       6.694       6.342       5.998       5.709       5.503       5.325       5.172       5.053    
        4.913       4.670       4.239       3.863       3.591       3.330       3.066       2.814       2.586       2.401    
        2.235       2.030       1.783       1.403      0.9189      0.5347      0.3200      0.2034      0.1020       0.000    
  38    10.00       9.893       9.800       9.672       9.461       9.212       9.033       8.922       8.822       8.696    
        8.533       8.369       8.253       8.135       8.010       7.914       7.834       7.737       7.589       7.443    
        7.287       7.010       6.616       6.232       5.871       5.580       5.349       5.155       5.018       4.904    
        4.733       4.339       3.984       3.768       3.509       3.259       3.073       2.867       2.660       2.483    
        2.289       2.010       1.698       1.286      0.8062      0.5118      0.3599      0.2242      0.1006       0.000    
  39    10.00       9.892       9.785       9.651       9.446       9.221       9.059       8.959       8.832       8.692    
        8.558       8.392       8.259       8.143       8.021       7.916       7.823       7.721       7.600       7.466    
        7.262       6.950       6.525       6.089       5.720       5.441       5.176       4.973       4.886       4.766    
        4.472       4.104       3.908       3.668       3.433       3.263       3.115       2.928       2.729       2.565    
        2.283       1.890       1.524       1.081      0.7184      0.5542      0.4124      0.2685      0.1381       0.000    
  40    10.00       9.882       9.788       9.651       9.462       9.272       9.113       8.978       8.828       8.699    
        8.597       8.430       8.260       8.141       8.027       7.902       7.797       7.718       7.608       7.425    
        7.179       6.812       6.380       5.968       5.600       5.303       4.990       4.837       4.757       4.595    
        4.335       4.087       3.826       3.588       3.430       3.288       3.148       2.976       2.794       2.579    
        2.199       1.771       1.376       1.018      0.7704      0.6013      0.4601      0.3247      0.1594       0.000    
  41    10.00       9.898       9.822       9.688       9.493       9.294       9.140       9.018       8.869       8.715    
        8.591       8.433       8.272       8.159       8.023       7.873       7.786       7.695       7.539       7.329    
        7.072       6.711       6.276       5.877       5.506       5.101       4.821       4.746       4.651       4.536    
        4.342       4.043       3.788       3.606       3.453       3.329       3.177       3.014       2.826       2.491    
        2.048       1.633       1.291       1.028      0.8133      0.6564      0.5055      0.3571      0.1880       0.000    
  42    10.00       9.923       9.839       9.709       9.539       9.347       9.172       9.046       8.909       8.734    
        8.573       8.421       8.281       8.172       8.023       7.867       7.756       7.628       7.456       7.215    
        6.915       6.521       6.141       5.739       5.251       4.903       4.771       4.709       4.630       4.511    
        4.284       4.026       3.793       3.612       3.492       3.361       3.227       3.051       2.752       2.309    
        1.923       1.615       1.319       1.022      0.8233      0.6900      0.5453      0.3716      0.2062       0.000    
  43    10.00       9.939       9.848       9.713       9.544       9.383       9.227       9.084       8.911       8.726    
        8.577       8.422       8.283       8.179       8.037       7.853       7.702       7.555       7.321       7.017    
        6.730       6.353       6.006       5.542       5.085       4.864       4.761       4.690       4.617       4.492    
        4.277       4.045       3.824       3.651       3.537       3.408       3.232       2.981       2.545       2.155    
        1.916       1.644       1.332       1.025      0.8146      0.6914      0.5800      0.4017      0.1882       0.000    
  44    10.00       9.931       9.853       9.712       9.557       9.441       9.281       9.082       8.885       8.731    
        8.581       8.422       8.299       8.187       8.017       7.814       7.638       7.463       7.188       6.891    
        6.552       6.181       5.813       5.353       5.015       4.853       4.764       4.704       4.624       4.465    
        4.250       4.066       3.873       3.714       3.597       3.416       3.184       2.825       2.386       2.131    
        1.912       1.628       1.318       1.038      0.8240      0.6930      0.5802      0.3934      0.1733       0.000    
  45    10.00       9.917       9.822       9.708       9.595       9.443       9.272       9.080       8.885       8.728    
        8.570       8.426       8.316       8.185       7.995       7.776       7.578       7.381       7.086       6.740    
        6.354       5.966       5.573       5.239       5.008       4.871       4.785       4.720       4.616       4.488    
        4.303       4.094       3.923       3.758       3.588       3.398       3.145       2.766       2.387       2.089    
        1.841       1.575       1.286       1.036      0.8494      0.7409      0.5725      0.3408      0.1553       0.000    
  46    10.00       9.899       9.801       9.709       9.579       9.404       9.237       9.080       8.886       8.717    
        8.576       8.443       8.330       8.170       7.967       7.770       7.561       7.302       6.987       6.613    
        6.163       5.781       5.470       5.218       5.043       4.921       4.814       4.724       4.642       4.500    
        4.303       4.122       3.953       3.762       3.594       3.416       3.132       2.695       2.300       2.035    
        1.803       1.548       1.278       1.058      0.9142      0.7746      0.5189      0.2551      0.1109       0.000    
  47    10.00       9.892       9.792       9.665       9.513       9.369       9.226       9.055       8.877       8.727    
        8.597       8.477       8.315       8.141       7.959       7.767       7.534       7.234       6.941       6.488    
        6.003       5.707       5.441       5.244       5.081       4.961       4.851       4.743       4.648       4.500    
        4.294       4.115       3.943       3.764       3.621       3.404       3.010       2.620       2.291       2.010    
        1.807       1.567       1.326       1.115      0.9360      0.7103      0.4267      0.2230      9.2888E-02   0.000    
  48    10.00       9.880       9.759       9.623       9.486       9.358       9.213       9.056       8.891       8.743    
        8.611       8.468       8.290       8.111       7.932       7.741       7.517       7.235       6.871       6.423    
        6.007       5.703       5.445       5.264       5.130       4.981       4.869       4.779       4.661       4.460    
        4.258       4.083       3.926       3.795       3.605       3.320       2.947       2.597       2.285       2.039    
        1.820       1.591       1.374       1.135      0.8676      0.5769      0.3646      0.2162      9.7697E-02   0.000    
  49    10.00       9.869       9.737       9.604       9.491       9.359       9.205       9.051       8.918       8.763    
        8.605       8.424       8.249       8.099       7.895       7.709       7.522       7.207       6.848       6.492    
        6.052       5.714       5.457       5.298       5.140       4.980       4.893       4.805       4.614       4.372    
        4.200       4.061       3.949       3.777       3.557       3.304       2.931       2.582       2.338       2.076    
        1.818       1.608       1.377       1.096      0.7680      0.5142      0.3646      0.2353      0.1207       0.000    
  50    10.00       9.874       9.742       9.606       9.483       9.353       9.216       9.064       8.924       8.786    
        8.591       8.402       8.242       8.040       7.833       7.691       7.514       7.269       6.913       6.561    
        6.113       5.687       5.463       5.302       5.137       5.006       4.901       4.783       4.557       4.328    
        4.186       4.072       3.940       3.762       3.559       3.317       2.941       2.583       2.346       2.109    
        1.865       1.600       1.340       1.039      0.7159      0.5262      0.3923      0.2659      0.1604       0.000    

 HEAD WILL BE SAVED ON UNIT   51 AT END OF TIME STEP   7, STRESS PERIOD    2

 DRAWDOWN WILL BE SAVED ON UNIT   52 AT END OF TIME STEP   7, STRESS PERIOD    2
1
  VOLUMETRIC BUDGET FOR ENTIRE MODEL AT END OF TIME STEP  7 IN STRESS PERIOD   2
  ------------------------------------------------------------------------------

     CUMULATIVE VOLUMES      L**3       RATES FOR THIS TIME STEP      L**3/T
     ------------------                 ------------------------

           IN:                                      IN:
           ---                                      ---
             STORAGE =        3500.0066               STORAGE =         499.9974
       CONSTANT HEAD =        2979.6770         CONSTANT HEAD =         372.4615
               WELLS =           0.0000                 WELLS =           0.0000

            TOTAL IN =        6479.6836              TOTAL IN =         872.4589

          OUT:                                     OUT:
          ----                                     ----
             STORAGE =       1.0197E-02               STORAGE =       5.6789E-04
       CONSTANT HEAD =        2979.6724         CONSTANT HEAD =         372.4591
               WELLS =        3500.0000                 WELLS =         500.0000

           TOTAL OUT =        6479.6826             TOTAL OUT =         872.4597

            IN - OUT =       9.7656E-04              IN - OUT =      -7.3242E-04

 PERCENT DISCREPANCY =           0.00     PERCENT DISCREPANCY =           0.00






          TIME SUMMARY AT END OF TIME STEP   7 IN STRESS PERIOD    2
                    SECONDS     MINUTES      HOURS       DAYS        YEARS
                    -----------------------------------------------------------
   TIME STEP LENGTH  86400.      1440.0      24.000      1.0000     2.73785E-03
 STRESS PERIOD TIME 6.04800E+05  10080.      168.00      7.0000     1.91650E-02
         TOTAL TIME 6.91200E+05  11520.      192.00      8.0000     2.19028E-02
1
 
 SOLVING FOR HEAD 

 OUTPUT CONTROL FOR STRESS PERIOD    2   TIME STEP   8
    SAVE HEAD FOR ALL LAYERS
    SAVE DRAWDOWN FOR ALL LAYERS
    SAVE BUDGET
    PRINT HEAD FOR ALL LAYERS
    PRINT BUDGET
 UBDSV1 SAVING "         STORAGE" ON UNIT  53 AT TIME STEP  8, STRESS PERIOD   2
 UBDSV2 SAVING "   CONSTANT HEAD" ON UNIT  53 AT TIME STEP  8, STRESS PERIOD   2
 UBDSV1 SAVING "FLOW RIGHT FACE " ON UNIT  53 AT TIME STEP  8, STRESS PERIOD   2
 UBDSV1 SAVING "FLOW FRONT FACE " ON UNIT  53 AT TIME STEP  8, STRESS PERIOD   2
1
              HEAD IN LAYER   1 AT END OF TIME STEP   8 IN STRESS PERIOD    2
  ---------------------------------------------------------------------------

            1           2           3           4           5           6           7           8           9          10
           11          12          13          14          15          16          17          18          19          20
           21          22          23          24          25          26          27          28          29          30
           31          32          33          34          35          36          37          38          39          40
           41          42          43          44          45          46          47          48          49          50
 ........................................................................................................................
   1    10.00       9.953       9.906       9.851       9.808       9.771       9.722       9.655       9.581       9.513    
        9.362       9.174       9.035       8.881       8.716       8.549       8.395       8.217       7.979       7.743    
        7.582       7.397       7.154       6.907       6.688       6.495       6.222       5.973       5.797       5.612    
        5.451       5.345       5.228       5.093       4.964       4.804       4.632       4.400       4.135       3.846    
        3.475       3.099       2.607       2.072       1.670       1.381       1.165      0.9189      0.5394       0.000    
   2    10.00       9.948       9.898       9.852       9.815       9.779       9.725       9.656       9.588       9.496    
        9.350       9.181       9.025       8.884       8.732       8.561       8.377       8.195       7.973       7.735    
        7.559       7.408       7.149       6.883       6.688       6.471       6.208       5.970       5.770       5.595    
        5.458       5.359       5.259       5.114       4.964       4.805       4.607       4.391       4.134       3.805    
        3.458       3.137       2.620       2.088       1.732       1.474       1.225      0.9490      0.5728       0.000    
   3    10.00       9.940       9.898       9.866       9.831       9.794       9.735       9.653       9.571       9.471    
        9.338       9.189       9.039       8.897       8.716       8.502       8.324       8.166       7.963       7.754    
        7.573       7.359       7.106       6.872       6.660       6.418       6.170       5.936       5.729       5.596    
        5.481       5.384       5.283       5.124       4.966       4.797       4.602       4.360       4.074       3.821    
        3.512       3.074       2.570       2.187       1.883       1.582       1.276      0.9619      0.5428       0.000    
   4    10.00       9.940       9.903       9.874       9.850       9.811       9.744       9.649       9.552       9.453    
        9.326       9.192       9.042       8.865       8.644       8.446       8.318       8.141       7.945       7.782    
        7.537       7.268       7.046       6.839       6.634       6.348       6.074       5.889       5.743       5.626    
        5.520       5.418       5.309       5.125       4.930       4.778       4.572       4.322       4.075       3.851    
        3.500       3.017       2.635       2.311       1.984       1.642       1.273      0.9056      0.4639       0.000    
   5    10.00       9.945       9.911       9.882       9.860       9.820       9.749       9.642       9.533       9.434    
        9.327       9.190       8.999       8.792       8.605       8.448       8.291       8.126       7.942       7.715    
        7.435       7.213       7.029       6.818       6.560       6.266       6.040       5.905       5.784       5.667    
        5.545       5.420       5.297       5.122       4.922       4.738       4.553       4.353       4.126       3.829    
        3.430       3.060       2.732       2.404       2.046       1.648       1.184      0.7630      0.3950       0.000    
   6    10.00       9.954       9.921       9.893       9.863       9.819       9.743       9.628       9.533       9.428    
        9.308       9.139       8.931       8.759       8.588       8.411       8.252       8.105       7.901       7.647    
        7.399       7.187       7.000       6.744       6.466       6.242       6.055       5.927       5.798       5.678    
        5.570       5.432       5.276       5.095       4.902       4.743       4.578       4.395       4.154       3.833    
        3.481       3.121       2.784       2.453       2.064       1.582       1.082      0.7177      0.3694       0.000    
   7    10.00       9.960       9.931       9.902       9.870       9.817       9.716       9.605       9.507       9.378    
        9.256       9.078       8.890       8.714       8.540       8.364       8.208       8.075       7.845       7.575    
        7.354       7.143       6.936       6.688       6.451       6.244       6.080       5.936       5.800       5.699    
        5.587       5.439       5.271       5.084       4.913       4.771       4.619       4.427       4.177       3.881    
        3.528       3.157       2.806       2.440       2.055       1.549       1.036      0.6838      0.3236       0.000    
   8    10.00       9.967       9.941       9.909       9.872       9.787       9.665       9.560       9.439       9.316    
        9.182       9.002       8.844       8.667       8.475       8.305       8.171       8.016       7.803       7.543    
        7.291       7.096       6.926       6.676       6.435       6.251       6.067       5.916       5.817       5.722    
        5.591       5.442       5.297       5.125       4.939       4.787       4.669       4.519       4.267       3.923    
        3.534       3.202       2.873       2.445       2.016       1.450      0.9598      0.6700      0.3100       0.000    
   9    10.00       9.974       9.945       9.909       9.847       9.736       9.607       9.486       9.380       9.254    
        9.097       8.937       8.782       8.615       8.419       8.261       8.138       7.958       7.752       7.495    
        7.274       7.085       6.856       6.610       6.407       6.245       6.058       5.922       5.824       5.718    
        5.597       5.459       5.320       5.168       5.005       4.850       4.721       4.584       4.321       3.945    
        3.585       3.286       2.937       2.522       1.886       1.248      0.9145      0.5667      0.2162       0.000    
  10    10.00       9.974       9.944       9.894       9.799       9.668       9.526       9.432       9.332       9.185    
        9.048       8.892       8.738       8.561       8.384       8.242       8.081       7.897       7.685       7.478    
        7.265       6.992       6.762       6.566       6.391       6.247       6.076       5.930       5.835       5.736    
        5.602       5.454       5.328       5.183       5.036       4.925       4.792       4.630       4.327       3.951    
        3.664       3.399       2.996       2.371       1.635       1.173      0.8303      0.5068      0.2528       0.000    
  11    10.00       9.974       9.935       9.857       9.751       9.605       9.480       9.402       9.284       9.159    
        9.028       8.866       8.684       8.497       8.349       8.200       8.054       7.860       7.658       7.457    
        7.174       6.913       6.724       6.546       6.377       6.221       6.065       5.942       5.855       5.759    
        5.610       5.466       5.352       5.218       5.088       4.961       4.809       4.632       4.345       4.039    
        3.734       3.386       2.948       2.259       1.569       1.103      0.7784      0.5903      0.3260       0.000    
  12    10.00       9.973       9.917       9.818       9.680       9.537       9.438       9.360       9.258       9.145    
        9.004       8.833       8.653       8.486       8.336       8.174       8.008       7.818       7.617       7.361    
        7.088       6.888       6.706       6.527       6.347       6.190       6.072       5.967       5.859       5.748    
        5.616       5.495       5.391       5.275       5.154       5.023       4.853       4.631       4.361       4.081    
        3.753       3.373       2.773       2.000       1.415       1.087      0.8646      0.6266      0.3570       0.000    
  13    10.00       9.964       9.878       9.743       9.600       9.478       9.399       9.331       9.245       9.138    
        8.991       8.814       8.649       8.516       8.343       8.147       7.956       7.752       7.538       7.295    
        7.059       6.849       6.658       6.481       6.311       6.189       6.094       5.968       5.833       5.734    
        5.638       5.531       5.432       5.325       5.208       5.087       4.926       4.666       4.382       4.049    
        3.672       3.195       2.502       1.876       1.450       1.169      0.9092      0.6282      0.3103       0.000    
  14    10.00       9.934       9.812       9.664       9.533       9.438       9.385       9.324       9.242       9.126    
        8.965       8.817       8.680       8.542       8.353       8.123       7.920       7.695       7.459       7.215    
        6.994       6.790       6.601       6.429       6.286       6.201       6.093       5.949       5.826       5.739    
        5.661       5.560       5.467       5.361       5.249       5.146       4.955       4.685       4.380       3.966    
        3.522       2.963       2.429       1.970       1.544       1.214      0.9254      0.6289      0.2800       0.000    
  15    10.00       9.877       9.743       9.612       9.507       9.435       9.377       9.320       9.240       9.134    
        8.993       8.848       8.717       8.529       8.315       8.101       7.874       7.644       7.373       7.117    
        6.917       6.727       6.547       6.403       6.289       6.190       6.075       5.932       5.825       5.752    
        5.672       5.579       5.498       5.398       5.284       5.169       4.967       4.704       4.323       3.874    
        3.414       2.908       2.473       1.998       1.638       1.286      0.9368      0.6227      0.2553       0.000    
  16    10.00       9.858       9.713       9.594       9.504       9.438       9.380       9.327       9.251       9.142    
        9.012       8.876       8.721       8.494       8.267       8.093       7.875       7.573       7.272       7.035    
        6.828       6.665       6.526       6.395       6.272       6.175       6.054       5.927       5.830       5.748    
        5.680       5.603       5.508       5.415       5.310       5.178       4.987       4.669       4.252       3.839    
        3.442       2.950       2.458       2.038       1.698       1.328      0.9336      0.5578      0.2099       0.000    
  17    10.00       9.840       9.695       9.599       9.520       9.454       9.396       9.337       9.256       9.155    
        9.037       8.871       8.667       8.430       8.242       8.081       7.834       7.509       7.202       6.974    
        6.798       6.623       6.471       6.351       6.242       6.133       6.017       5.920       5.828       5.752    
        5.698       5.621       5.514       5.413       5.307       5.164       4.939       4.662       4.314       3.874    
        3.413       2.893       2.437       2.065       1.717       1.338      0.9533      0.5810      0.2455       0.000    
  18    10.00       9.831       9.695       9.613       9.542       9.478       9.421       9.351       9.271       9.164    
        9.025       8.836       8.613       8.415       8.233       8.011       7.735       7.450       7.181       6.959    
        6.751       6.531       6.392       6.292       6.193       6.077       5.988       5.902       5.832       5.771    
        5.711       5.632       5.516       5.397       5.283       5.127       4.904       4.670       4.364       3.950    
        3.348       2.793       2.421       2.067       1.770       1.371      0.9473      0.5693      0.2451       0.000    
  19    10.00       9.839       9.726       9.642       9.566       9.502       9.435       9.370       9.297       9.175    
        9.013       8.813       8.594       8.379       8.151       7.919       7.667       7.398       7.138       6.905    
        6.670       6.461       6.345       6.256       6.135       6.024       5.945       5.872       5.832       5.787    
        5.725       5.635       5.500       5.374       5.266       5.135       4.913       4.649       4.337       3.852    
        3.248       2.776       2.405       2.057       1.725       1.314      0.9093      0.5655      0.2664       0.000    
  20    10.00       9.849       9.752       9.678       9.605       9.529       9.450       9.380       9.307       9.184    
        9.009       8.802       8.552       8.280       8.027       7.842       7.596       7.312       7.084       6.852    
        6.639       6.458       6.315       6.191       6.046       5.960       5.893       5.840       5.815       5.786    
        5.740       5.627       5.482       5.377       5.264       5.117       4.862       4.594       4.239       3.700    
        3.180       2.802       2.372       1.976       1.616       1.212      0.9116      0.5613      0.2488       0.000    
  21    10.00       9.871       9.784       9.710       9.630       9.557       9.470       9.394       9.315       9.177    
        8.990       8.742       8.437       8.128       7.898       7.733       7.509       7.302       7.087       6.839    
        6.631       6.437       6.260       6.042       5.913       5.862       5.791       5.782       5.782       5.759    
        5.713       5.610       5.491       5.392       5.266       5.049       4.789       4.553       4.042       3.489    
        3.105       2.701       2.264       1.897       1.516       1.163      0.8252      0.4944      0.2483       0.000    
  22    10.00       9.899       9.808       9.727       9.649       9.581       9.483       9.385       9.293       9.153    
        8.928       8.622       8.287       8.003       7.808       7.640       7.469       7.320       7.094       6.853    
        6.639       6.375       6.071       5.821       5.719       5.623       5.616       5.677       5.695       5.688    
        5.659       5.589       5.503       5.405       5.261       5.008       4.729       4.311       3.746       3.397    
        2.988       2.555       2.165       1.813       1.489       1.070      0.7159      0.4740      0.2664       0.000    
  23    10.00       9.900       9.813       9.739       9.658       9.568       9.457       9.369       9.289       9.113    
        8.840       8.516       8.214       7.969       7.772       7.630       7.471       7.281       7.067       6.876    
        6.590       6.201       5.867       5.602       5.225       5.224       5.404       5.508       5.567       5.608    
        5.598       5.563       5.517       5.410       5.231       4.948       4.545       4.071       3.618       3.199    
        2.815       2.459       2.086       1.807       1.397      0.9724      0.6963      0.4558      0.2366       0.000    
  24    10.00       9.922       9.823       9.727       9.633       9.529       9.430       9.355       9.266       9.060    
        8.750       8.446       8.198       7.986       7.799       7.616       7.425       7.253       7.082       6.861    
        6.521       6.133       5.733       4.965       4.112       4.611       5.076       5.330       5.452       5.531    
        5.545       5.539       5.501       5.371       5.177       4.829       4.382       3.983       3.481       3.038    
        2.739       2.398       2.045       1.689       1.250      0.9021      0.6698      0.4269      0.1883       0.000    
  25    10.00       9.915       9.800       9.683       9.573       9.480       9.404       9.329       9.219       9.005    
        8.680       8.398       8.209       8.013       7.799       7.611       7.434       7.285       7.131       6.858    
        6.466       6.076       5.431       4.155       1.408       4.055       4.802       5.211       5.400       5.485    
        5.516       5.516       5.450       5.303       5.104       4.740       4.265       3.807       3.400       3.017    
        2.674       2.304       1.903       1.528       1.112      0.8285      0.6672      0.4151      0.1538       0.000    
  26    10.00       9.893       9.747       9.615       9.527       9.451       9.377       9.284       9.153       8.888    
        8.588       8.393       8.213       8.017       7.818       7.638       7.473       7.330       7.140       6.851    
        6.507       6.081       5.520       4.840       4.198       4.542       4.977       5.254       5.400       5.473    
        5.497       5.474       5.386       5.236       5.012       4.620       4.115       3.744       3.408       2.992    
        2.631       2.213       1.752       1.351       1.011      0.8111      0.6313      0.3701      0.1575       0.000    
  27    10.00       9.870       9.714       9.591       9.517       9.418       9.320       9.203       9.028       8.778    
        8.568       8.395       8.212       8.020       7.824       7.681       7.568       7.377       7.137       6.840    
        6.540       6.239       5.804       5.375       5.027       5.085       5.239       5.360       5.437       5.474    
        5.476       5.427       5.338       5.169       4.910       4.494       4.099       3.767       3.377       2.984    
        2.609       2.104       1.578       1.202      0.9653      0.7981      0.6005      0.3914      0.1887       0.000    
  28    10.00       9.853       9.738       9.600       9.474       9.353       9.245       9.108       8.934       8.742    
        8.568       8.412       8.229       8.014       7.839       7.725       7.598       7.380       7.094       6.823    
        6.618       6.401       6.075       5.759       5.546       5.470       5.453       5.469       5.493       5.486    
        5.449       5.398       5.290       5.095       4.795       4.435       4.126       3.742       3.339       2.945    
        2.490       2.016       1.494       1.120      0.9548      0.7951      0.6192      0.4088      0.1895       0.000    
  29    10.00       9.857       9.715       9.569       9.417       9.301       9.179       9.027       8.881       8.729    
        8.573       8.417       8.236       8.052       7.902       7.765       7.591       7.342       7.080       6.871    
        6.704       6.519       6.261       5.984       5.807       5.701       5.622       5.573       5.538       5.487    
        5.432       5.353       5.232       5.016       4.704       4.412       4.134       3.778       3.330       2.833    
        2.419       1.915       1.396       1.104      0.9579      0.8008      0.6146      0.3994      0.1986       0.000    
  30    10.00       9.837       9.693       9.517       9.364       9.257       9.127       8.993       8.879       8.741    
        8.579       8.408       8.239       8.091       7.954       7.795       7.568       7.334       7.128       6.938    
        6.799       6.622       6.386       6.143       5.935       5.819       5.722       5.634       5.561       5.484    
        5.400       5.313       5.174       4.928       4.667       4.444       4.165       3.708       3.165       2.670    
        2.257       1.799       1.405       1.134      0.9799      0.8028      0.6038      0.4187      0.2053       0.000    
  31    10.00       9.815       9.648       9.481       9.343       9.232       9.108       8.988       8.875       8.737    
        8.574       8.398       8.250       8.123       7.988       7.802       7.575       7.378       7.221       7.058    
        6.910       6.707       6.466       6.260       6.042       5.862       5.748       5.647       5.566       5.470    
        5.371       5.266       5.104       4.888       4.652       4.414       3.992       3.503       3.061       2.583    
        2.195       1.740       1.358       1.163      0.9983      0.8315      0.6244      0.4193      0.1987       0.000    
  32    10.00       9.800       9.621       9.478       9.361       9.250       9.119       8.982       8.843       8.712    
        8.548       8.394       8.260       8.116       7.985       7.821       7.645       7.498       7.334       7.161    
        7.003       6.795       6.558       6.350       6.110       5.879       5.752       5.651       5.544       5.421    
        5.311       5.225       5.032       4.800       4.599       4.288       3.790       3.344       2.963       2.530    
        2.080       1.659       1.380       1.230       1.050      0.8389      0.6198      0.3984      0.1987       0.000    
  33    10.00       9.794       9.641       9.525       9.407       9.277       9.118       8.964       8.812       8.661    
        8.524       8.393       8.258       8.119       7.972       7.843       7.711       7.580       7.437       7.257    
        7.058       6.860       6.669       6.420       6.130       5.881       5.729       5.621       5.495       5.363    
        5.262       5.139       4.945       4.747       4.476       4.071       3.584       3.218       2.858       2.360    
        1.956       1.683       1.461       1.283       1.077      0.8556      0.5871      0.3506      0.1579       0.000    
  34    10.00       9.812       9.686       9.577       9.446       9.284       9.115       8.933       8.764       8.637    
        8.514       8.394       8.271       8.125       7.991       7.864       7.746       7.639       7.492       7.293    
        7.102       6.929       6.730       6.458       6.139       5.863       5.690       5.563       5.443       5.304    
        5.188       5.057       4.888       4.650       4.333       3.850       3.392       3.077       2.659       2.227    
        1.981       1.802       1.588       1.358       1.088      0.7759      0.4744      0.2807      0.1163       0.000    
  35    10.00       9.843       9.729       9.618       9.476       9.293       9.100       8.895       8.735       8.626    
        8.543       8.420       8.279       8.119       7.976       7.882       7.794       7.675       7.515       7.325    
        7.144       6.968       6.774       6.446       6.079       5.817       5.637       5.514       5.384       5.233    
        5.128       4.991       4.802       4.496       4.017       3.539       3.247       2.930       2.511       2.256    
        2.086       1.882       1.667       1.443       1.101      0.6597      0.3642      0.2393      0.1214       0.000    
  36    10.00       9.861       9.762       9.655       9.503       9.284       9.046       8.854       8.740       8.657    
        8.542       8.396       8.263       8.120       7.992       7.899       7.809       7.696       7.567       7.383    
        7.190       7.004       6.746       6.376       6.027       5.769       5.605       5.462       5.295       5.168    
        5.041       4.878       4.582       4.142       3.724       3.413       3.150       2.822       2.497       2.331    
        2.158       1.975       1.758       1.469       1.004      0.5551      0.3419      0.2187      0.1124       0.000    
  37    10.00       9.875       9.798       9.682       9.479       9.238       9.028       8.878       8.783       8.680    
        8.528       8.371       8.255       8.129       8.007       7.913       7.825       7.719       7.576       7.406    
        7.247       7.030       6.692       6.339       5.996       5.706       5.499       5.322       5.169       5.050    
        4.910       4.668       4.238       3.862       3.591       3.330       3.066       2.814       2.586       2.401    
        2.235       2.030       1.783       1.403      0.9189      0.5347      0.3200      0.2034      0.1020       0.000    
  38    10.00       9.893       9.800       9.672       9.461       9.212       9.033       8.922       8.822       8.696    
        8.533       8.368       8.253       8.134       8.010       7.913       7.833       7.736       7.588       7.441    
        7.286       7.009       6.615       6.231       5.870       5.578       5.348       5.154       5.017       4.902    
        4.731       4.338       3.983       3.768       3.509       3.259       3.073       2.867       2.660       2.483    
        2.289       2.010       1.698       1.286      0.8062      0.5118      0.3599      0.2242      0.1006       0.000    
  39    10.00       9.892       9.785       9.651       9.446       9.221       9.059       8.959       8.832       8.691    
        8.558       8.391       8.259       8.143       8.020       7.915       7.822       7.721       7.600       7.465    
        7.262       6.949       6.524       6.089       5.719       5.441       5.175       4.972       4.885       4.765    
        4.472       4.104       3.908       3.668       3.433       3.263       3.115       2.928       2.729       2.565    
        2.283       1.890       1.524       1.081      0.7184      0.5542      0.4124      0.2685      0.1381       0.000    
  40    10.00       9.882       9.788       9.651       9.462       9.272       9.113       8.978       8.828       8.699    
        8.597       8.430       8.260       8.140       8.027       7.902       7.797       7.717       7.608       7.425    
        7.179       6.812       6.380       5.967       5.600       5.303       4.989       4.837       4.756       4.595    
        4.335       4.087       3.826       3.588       3.430       3.288       3.148       2.975       2.794       2.579    
        2.199       1.771       1.376       1.018      0.7704      0.6013      0.4601      0.3247      0.1594       0.000    
  41    10.00       9.898       9.822       9.688       9.493       9.294       9.140       9.018       8.869       8.715    
        8.591       8.433       8.272       8.159       8.023       7.873       7.786       7.695       7.539       7.329    
        7.072       6.711       6.276       5.877       5.506       5.101       4.821       4.746       4.651       4.535    
        4.342       4.043       3.788       3.606       3.453       3.329       3.177       3.014       2.826       2.491    
        2.048       1.633       1.291       1.028      0.8133      0.6564      0.5055      0.3571      0.1880       0.000    
  42    10.00       9.923       9.839       9.709       9.539       9.347       9.172       9.046       8.909       8.734    
        8.573       8.421       8.281       8.171       8.023       7.867       7.756       7.627       7.456       7.215    
        6.915       6.521       6.141       5.739       5.251       4.903       4.771       4.709       4.630       4.511    
        4.284       4.026       3.793       3.612       3.492       3.361       3.227       3.051       2.752       2.309    
        1.923       1.615       1.319       1.022      0.8233      0.6900      0.5453      0.3716      0.2062       0.000    
  43    10.00       9.939       9.848       9.713       9.544       9.383       9.227       9.084       8.911       8.726    
        8.577       8.422       8.283       8.179       8.037       7.853       7.702       7.554       7.321       7.017    
        6.730       6.353       6.006       5.542       5.085       4.864       4.761       4.690       4.617       4.492    
        4.277       4.045       3.824       3.651       3.537       3.408       3.232       2.981       2.545       2.155    
        1.916       1.644       1.332       1.025      0.8146      0.6914      0.5800      0.4017      0.1882       0.000    
  44    10.00       9.931       9.853       9.712       9.557       9.441       9.281       9.082       8.885       8.731    
        8.581       8.422       8.299       8.187       8.017       7.814       7.638       7.463       7.188       6.891    
        6.552       6.181       5.813       5.353       5.015       4.853       4.764       4.704       4.624       4.465    
        4.250       4.066       3.873       3.714       3.597       3.416       3.184       2.825       2.386       2.131    
        1.912       1.628       1.318       1.038      0.8240      0.6930      0.5802      0.3934      0.1733       0.000    
  45    10.00       9.917       9.822       9.708       9.595       9.443       9.272       9.080       8.885       8.728    
        8.570       8.426       8.316       8.185       7.995       7.776       7.578       7.381       7.086       6.740    
        6.354       5.966       5.573       5.239       5.008       4.871       4.785       4.720       4.616       4.488    
        4.303       4.094       3.923       3.758       3.588       3.398       3.145       2.766       2.387       2.089    
        1.841       1.575       1.286       1.036      0.8494      0.7409      0.5725      0.3408      0.1553       0.000    
  46    10.00       9.899       9.801       9.709       9.579       9.404       9.237       9.080       8.886       8.717    
        8.576       8.443       8.330       8.170       7.967       7.770       7.561       7.302       6.987       6.613    
        6.163       5.781       5.470       5.218       5.043       4.921       4.814       4.724       4.642       4.500    
        4.303       4.122       3.953       3.762       3.594       3.416       3.132       2.695       2.300       2.035    
        1.803       1.548       1.278       1.058      0.9142      0.7746      0.5189      0.2551      0.1109       0.000    
  47    10.00       9.892       9.792       9.665       9.513       9.369       9.226       9.055       8.877       8.727    
        8.597       8.477       8.315       8.141       7.959       7.767       7.534       7.234       6.941       6.488    
        6.003       5.707       5.441       5.244       5.081       4.961       4.851       4.743       4.648       4.500    
        4.294       4.115       3.943       3.764       3.620       3.404       3.010       2.620       2.291       2.010    
        1.807       1.567       1.326       1.115      0.9360      0.7103      0.4267      0.2230      9.2888E-02   0.000    
  48    10.00       9.880       9.759       9.623       9.486       9.358       9.213       9.056       8.891       8.743    
        8.611       8.468       8.290       8.111       7.932       7.741       7.517       7.235       6.871       6.423    
        6.007       5.703       5.445       5.264       5.130       4.981       4.869       4.779       4.661       4.460    
        4.258       4.083       3.926       3.795       3.605       3.320       2.947       2.597       2.285       2.039    
        1.820       1.591       1.374       1.135      0.8676      0.5769      0.3646      0.2162      9.7697E-02   0.000    
  49    10.00       9.869       9.737       9.604       9.491       9.359       9.205       9.051       8.918       8.763    
        8.605       8.424       8.249       8.099       7.895       7.709       7.522       7.207       6.848       6.492    
        6.052       5.714       5.457       5.298       5.140       4.980       4.893       4.805       4.614       4.372    
        4.200       4.061       3.949       3.777       3.557       3.304       2.931       2.582       2.338       2.076    
        1.818       1.608       1.377       1.096      0.7680      0.5142      0.3646      0.2353      0.1207       0.000    
  50    10.00       9.874       9.742       9.606       9.483       9.353       9.216       9.064       8.924       8.786    
        8.591       8.402       8.242       8.040       7.833       7.691       7.514       7.269       6.913       6.561    
        6.113       5.687       5.463       5.302       5.137       5.006       4.901       4.783       4.557       4.328    
        4.186       4.072       3.940       3.762       3.559       3.317       2.941       2.583       2.346       2.109    
        1.865       1.600       1.340       1.039      0.7159      0.5262      0.3923      0.2659      0.1604       0.000    

 HEAD WILL BE SAVED ON UNIT   51 AT END OF TIME STEP   8, STRESS PERIOD    2

 DRAWDOWN WILL BE SAVED ON UNIT   52 AT END OF TIME STEP   8, STRESS PERIOD    2
1
  VOLUMETRIC BUDGET FOR ENTIRE MODEL AT END OF TIME STEP  8 IN STRESS PERIOD   2
  ------------------------------------------------------------------------------

     CUMULATIVE VOLUMES      L**3       RATES FOR THIS TIME STEP      L**3/T
     ------------------                 ------------------------

           IN:                                      IN:
           ---                                      ---
             STORAGE =        4000.0017               STORAGE =         499.9951
       CONSTANT HEAD =        3352.1411         CONSTANT HEAD =         372.4640
               WELLS =           0.0000                 WELLS =           0.0000

            TOTAL IN =        7352.1426              TOTAL IN =         872.4591

          OUT:                                     OUT:
          ----                                     ----
             STORAGE =       1.0608E-02               STORAGE =       4.1073E-04
       CONSTANT HEAD =        3352.1313         CONSTANT HEAD =         372.4591
               WELLS =        4000.0000                 WELLS =         500.0000

           TOTAL OUT =        7352.1421             TOTAL OUT =         872.4595

            IN - OUT =       4.8828E-04              IN - OUT =      -3.6621E-04

 PERCENT DISCREPANCY =           0.00     PERCENT DISCREPANCY =           0.00






          TIME SUMMARY AT END OF TIME STEP   8 IN STRESS PERIOD    2
                    SECONDS     MINUTES      HOURS       DAYS        YEARS
                    -----------------------------------------------------------
   TIME STEP LENGTH  86400.      1440.0      24.000      1.0000     2.73785E-03
 STRESS PERIOD TIME 6.91200E+05  11520.      192.00      8.0000     2.19028E-02
         TOTAL TIME 7.77600E+05  12960.      216.00      9.0000     2.46407E-02
1
 
 SOLVING FOR HEAD 

 OUTPUT CONTROL FOR STRESS PERIOD    2   TIME STEP   9
    SAVE HEAD FOR ALL LAYERS
    SAVE DRAWDOWN FOR ALL LAYERS
    SAVE BUDGET
    PRINT HEAD FOR ALL LAYERS
    PRINT BUDGET
 UBDSV1 SAVING "         STORAGE" ON UNIT  53 AT TIME STEP  9, STRESS PERIOD   2
 UBDSV2 SAVING "   CONSTANT HEAD" ON UNIT  53 AT TIME STEP  9, STRESS PERIOD   2
 UBDSV1 SAVING "FLOW RIGHT FACE " ON UNIT  53 AT TIME STEP  9, STRESS PERIOD   2
 UBDSV1 SAVING "FLOW FRONT FACE " ON UNIT  53 AT TIME STEP  9, STRESS PERIOD   2
1
              HEAD IN LAYER   1 AT END OF TIME STEP   9 IN STRESS PERIOD    2
  ---------------------------------------------------------------------------

            1           2           3           4           5           6           7           8           9          10
           11          12          13          14          15          16          17          18          19          20
           21          22          23          24          25          26          27          28          29          30
           31          32          33          34          35          36          37          38          39          40
           41          42          43          44          45          46          47          48          49          50
 ........................................................................................................................
   1    10.00       9.953       9.906       9.851       9.808       9.771       9.722       9.655       9.581       9.513    
        9.362       9.174       9.035       8.881       8.716       8.549       8.395       8.217       7.979       7.743    
        7.582       7.397       7.154       6.907       6.687       6.495       6.222       5.973       5.797       5.612    
        5.451       5.345       5.228       5.093       4.964       4.804       4.632       4.400       4.135       3.846    
        3.475       3.099       2.607       2.072       1.670       1.381       1.165      0.9189      0.5394       0.000    
   2    10.00       9.948       9.898       9.852       9.815       9.779       9.725       9.656       9.588       9.496    
        9.350       9.181       9.025       8.884       8.732       8.561       8.377       8.195       7.973       7.735    
        7.559       7.408       7.149       6.883       6.688       6.471       6.208       5.970       5.770       5.595    
        5.458       5.359       5.259       5.114       4.964       4.805       4.607       4.391       4.134       3.805    
        3.458       3.137       2.620       2.088       1.732       1.474       1.225      0.9490      0.5728       0.000    
   3    10.00       9.940       9.898       9.866       9.831       9.794       9.735       9.653       9.571       9.471    
        9.338       9.189       9.039       8.897       8.716       8.502       8.324       8.166       7.963       7.754    
        7.573       7.359       7.106       6.872       6.660       6.418       6.170       5.936       5.729       5.596    
        5.481       5.384       5.283       5.124       4.966       4.797       4.602       4.360       4.074       3.821    
        3.512       3.074       2.570       2.187       1.883       1.582       1.276      0.9619      0.5428       0.000    
   4    10.00       9.940       9.903       9.874       9.850       9.811       9.744       9.649       9.552       9.453    
        9.326       9.192       9.042       8.865       8.644       8.446       8.318       8.141       7.945       7.782    
        7.537       7.268       7.046       6.839       6.634       6.348       6.074       5.889       5.743       5.626    
        5.520       5.418       5.309       5.125       4.930       4.778       4.572       4.322       4.075       3.851    
        3.500       3.017       2.635       2.311       1.984       1.642       1.273      0.9056      0.4639       0.000    
   5    10.00       9.945       9.911       9.882       9.860       9.820       9.749       9.642       9.533       9.434    
        9.327       9.190       8.999       8.792       8.605       8.448       8.291       8.126       7.942       7.715    
        7.435       7.213       7.028       6.818       6.560       6.266       6.039       5.905       5.784       5.667    
        5.545       5.420       5.297       5.122       4.922       4.738       4.553       4.353       4.126       3.829    
        3.430       3.060       2.732       2.404       2.046       1.648       1.184      0.7630      0.3950       0.000    
   6    10.00       9.954       9.921       9.893       9.863       9.819       9.743       9.628       9.533       9.428    
        9.308       9.139       8.931       8.759       8.588       8.411       8.252       8.105       7.901       7.646    
        7.399       7.187       7.000       6.744       6.466       6.241       6.055       5.927       5.798       5.678    
        5.569       5.432       5.276       5.095       4.902       4.743       4.578       4.395       4.154       3.833    
        3.481       3.121       2.784       2.453       2.064       1.582       1.082      0.7177      0.3694       0.000    
   7    10.00       9.960       9.931       9.902       9.870       9.817       9.716       9.605       9.507       9.378    
        9.256       9.078       8.890       8.714       8.540       8.363       8.208       8.075       7.845       7.574    
        7.354       7.143       6.935       6.688       6.451       6.244       6.079       5.935       5.800       5.699    
        5.587       5.438       5.271       5.083       4.913       4.770       4.619       4.427       4.176       3.881    
        3.528       3.157       2.806       2.440       2.055       1.549       1.036      0.6838      0.3236       0.000    
   8    10.00       9.967       9.941       9.909       9.872       9.787       9.665       9.560       9.439       9.316    
        9.182       9.002       8.844       8.667       8.475       8.305       8.171       8.016       7.803       7.542    
        7.290       7.096       6.926       6.676       6.434       6.250       6.066       5.915       5.816       5.721    
        5.590       5.441       5.296       5.125       4.939       4.787       4.669       4.518       4.267       3.922    
        3.534       3.202       2.873       2.445       2.016       1.450      0.9598      0.6700      0.3100       0.000    
   9    10.00       9.974       9.945       9.909       9.847       9.736       9.607       9.486       9.380       9.254    
        9.097       8.937       8.782       8.615       8.419       8.260       8.137       7.958       7.752       7.494    
        7.274       7.084       6.855       6.609       6.406       6.243       6.056       5.921       5.823       5.717    
        5.595       5.458       5.319       5.167       5.004       4.850       4.721       4.584       4.321       3.945    
        3.585       3.286       2.937       2.522       1.886       1.248      0.9145      0.5667      0.2162       0.000    
  10    10.00       9.974       9.944       9.894       9.799       9.668       9.526       9.432       9.332       9.185    
        9.048       8.892       8.738       8.561       8.383       8.242       8.080       7.897       7.684       7.477    
        7.265       6.990       6.760       6.564       6.389       6.245       6.074       5.928       5.832       5.734    
        5.600       5.452       5.326       5.182       5.035       4.924       4.791       4.629       4.327       3.951    
        3.664       3.399       2.996       2.371       1.635       1.173      0.8303      0.5068      0.2528       0.000    
  11    10.00       9.974       9.935       9.857       9.751       9.605       9.480       9.402       9.284       9.159    
        9.028       8.866       8.684       8.497       8.349       8.200       8.054       7.860       7.657       7.456    
        7.173       6.910       6.722       6.543       6.374       6.218       6.062       5.939       5.851       5.756    
        5.607       5.464       5.350       5.216       5.087       4.960       4.809       4.631       4.345       4.039    
        3.734       3.386       2.948       2.259       1.569       1.103      0.7784      0.5903      0.3260       0.000    
  12    10.00       9.973       9.917       9.818       9.680       9.537       9.438       9.360       9.258       9.145    
        9.004       8.833       8.653       8.486       8.336       8.174       8.008       7.817       7.616       7.359    
        7.086       6.885       6.702       6.523       6.342       6.184       6.066       5.962       5.855       5.744    
        5.612       5.491       5.387       5.273       5.152       5.022       4.852       4.630       4.361       4.081    
        3.753       3.373       2.773       2.000       1.415       1.087      0.8646      0.6266      0.3570       0.000    
  13    10.00       9.964       9.878       9.743       9.600       9.478       9.399       9.331       9.245       9.138    
        8.991       8.814       8.649       8.516       8.343       8.146       7.955       7.751       7.536       7.292    
        7.055       6.844       6.652       6.474       6.303       6.181       6.087       5.961       5.826       5.727    
        5.632       5.526       5.427       5.322       5.205       5.085       4.924       4.665       4.381       4.049    
        3.672       3.195       2.502       1.876       1.450       1.169      0.9092      0.6282      0.3103       0.000    
  14    10.00       9.934       9.812       9.664       9.533       9.438       9.385       9.324       9.242       9.126    
        8.965       8.816       8.680       8.542       8.352       8.123       7.920       7.693       7.456       7.211    
        6.988       6.783       6.593       6.419       6.276       6.191       6.084       5.939       5.817       5.731    
        5.653       5.553       5.462       5.357       5.246       5.143       4.953       4.684       4.380       3.965    
        3.522       2.963       2.429       1.970       1.544       1.214      0.9254      0.6289      0.2800       0.000    
  15    10.00       9.877       9.743       9.612       9.507       9.435       9.377       9.320       9.240       9.134    
        8.993       8.848       8.717       8.529       8.314       8.100       7.872       7.642       7.369       7.110    
        6.908       6.716       6.535       6.390       6.276       6.177       6.063       5.920       5.814       5.742    
        5.662       5.571       5.492       5.393       5.280       5.167       4.965       4.703       4.322       3.874    
        3.414       2.908       2.473       1.998       1.638       1.286      0.9368      0.6227      0.2553       0.000    
  16    10.00       9.858       9.713       9.594       9.504       9.438       9.380       9.327       9.251       9.142    
        9.012       8.876       8.721       8.494       8.266       8.091       7.873       7.569       7.266       7.026    
        6.816       6.651       6.509       6.378       6.255       6.159       6.037       5.912       5.816       5.736    
        5.668       5.593       5.501       5.409       5.306       5.174       4.985       4.668       4.251       3.839    
        3.442       2.950       2.458       2.038       1.698       1.328      0.9336      0.5578      0.2099       0.000    
  17    10.00       9.840       9.695       9.599       9.520       9.454       9.396       9.337       9.256       9.155    
        9.036       8.871       8.667       8.429       8.241       8.079       7.830       7.503       7.192       6.961    
        6.783       6.603       6.448       6.327       6.218       6.109       5.994       5.898       5.809       5.735    
        5.684       5.610       5.505       5.406       5.302       5.161       4.937       4.661       4.314       3.873    
        3.413       2.893       2.437       2.065       1.717       1.338      0.9533      0.5810      0.2455       0.000    
  18    10.00       9.831       9.695       9.613       9.542       9.478       9.421       9.351       9.271       9.164    
        9.025       8.835       8.612       8.413       8.231       8.008       7.730       7.441       7.169       6.942    
        6.730       6.504       6.362       6.260       6.162       6.046       5.958       5.874       5.807       5.750    
        5.694       5.618       5.506       5.390       5.278       5.123       4.902       4.669       4.363       3.950    
        3.348       2.793       2.420       2.067       1.770       1.371      0.9473      0.5693      0.2451       0.000    
  19    10.00       9.839       9.726       9.642       9.566       9.502       9.435       9.370       9.297       9.175    
        9.012       8.812       8.593       8.377       8.148       7.914       7.659       7.386       7.121       6.882    
        6.642       6.428       6.309       6.220       6.099       5.987       5.910       5.839       5.802       5.761    
        5.704       5.619       5.489       5.366       5.260       5.131       4.910       4.648       4.336       3.852    
        3.248       2.776       2.405       2.057       1.725       1.314      0.9093      0.5655      0.2664       0.000    
  20    10.00       9.849       9.752       9.678       9.605       9.529       9.450       9.380       9.307       9.184    
        9.008       8.802       8.551       8.278       8.022       7.836       7.586       7.296       7.062       6.824    
        6.605       6.421       6.276       6.150       6.003       5.918       5.854       5.804       5.781       5.755    
        5.714       5.608       5.469       5.368       5.257       5.113       4.860       4.593       4.238       3.700    
        3.180       2.802       2.372       1.976       1.616       1.212      0.9116      0.5613      0.2488       0.000    
  21    10.00       9.871       9.784       9.710       9.630       9.557       9.470       9.394       9.315       9.177    
        8.990       8.741       8.436       8.125       7.892       7.725       7.496       7.283       7.063       6.808    
        6.594       6.396       6.216       5.993       5.863       5.813       5.745       5.740       5.744       5.724    
        5.684       5.588       5.476       5.381       5.258       5.045       4.787       4.552       4.041       3.489    
        3.105       2.701       2.264       1.897       1.516       1.163      0.8252      0.4944      0.2483       0.000    
  22    10.00       9.899       9.808       9.727       9.649       9.581       9.483       9.385       9.293       9.153    
        8.928       8.621       8.285       7.998       7.800       7.628       7.454       7.301       7.067       6.819    
        6.599       6.327       6.016       5.763       5.661       5.565       5.561       5.627       5.649       5.647    
        5.625       5.561       5.483       5.392       5.253       5.004       4.727       4.310       3.746       3.397    
        2.988       2.555       2.165       1.813       1.489       1.070      0.7159      0.4740      0.2664       0.000    
  23    10.00       9.900       9.813       9.739       9.658       9.568       9.457       9.369       9.289       9.113    
        8.840       8.515       8.211       7.964       7.763       7.618       7.455       7.259       7.037       6.840    
        6.543       6.144       5.803       5.537       5.156       5.155       5.341       5.449       5.514       5.561    
        5.558       5.530       5.491       5.394       5.223       4.945       4.544       4.071       3.618       3.199    
        2.815       2.459       2.086       1.807       1.397      0.9724      0.6963      0.4558      0.2366       0.000    
  24    10.00       9.922       9.823       9.727       9.633       9.529       9.430       9.355       9.266       9.059    
        8.750       8.444       8.195       7.981       7.791       7.604       7.407       7.229       7.051       6.823    
        6.469       6.071       5.663       4.888       4.031       4.533       5.003       5.264       5.393       5.480    
        5.502       5.502       5.473       5.354       5.168       4.826       4.381       3.982       3.481       3.038    
        2.739       2.398       2.045       1.689       1.250      0.9021      0.6698      0.4269      0.1883       0.000    
  25    10.00       9.915       9.800       9.683       9.573       9.480       9.404       9.329       9.219       9.005    
        8.679       8.397       8.207       8.008       7.791       7.599       7.416       7.262       7.102       6.817    
        6.410       6.011       5.355       4.070       1.318       3.972       4.725       5.142       5.340       5.433    
        5.471       5.477       5.422       5.286       5.094       4.737       4.264       3.807       3.400       3.017    
        2.674       2.304       1.903       1.528       1.112      0.8285      0.6672      0.4151      0.1538       0.000    
  26    10.00       9.893       9.746       9.615       9.527       9.451       9.377       9.284       9.153       8.888    
        8.587       8.392       8.210       8.013       7.810       7.626       7.456       7.308       7.111       6.810    
        6.452       6.015       5.444       4.758       4.114       4.460       4.901       5.185       5.339       5.420    
        5.451       5.438       5.360       5.220       5.003       4.616       4.114       3.743       3.408       2.992    
        2.631       2.212       1.752       1.351       1.011      0.8111      0.6313      0.3701      0.1575       0.000    
  27    10.00       9.870       9.714       9.591       9.517       9.418       9.320       9.203       9.028       8.778    
        8.567       8.394       8.209       8.016       7.816       7.670       7.554       7.357       7.108       6.799    
        6.488       6.179       5.735       5.300       4.949       5.008       5.167       5.294       5.379       5.423    
        5.435       5.396       5.315       5.154       4.902       4.491       4.097       3.766       3.377       2.984    
        2.609       2.104       1.578       1.202      0.9653      0.7981      0.6005      0.3914      0.1887       0.000    
  28    10.00       9.853       9.738       9.600       9.474       9.353       9.245       9.107       8.934       8.741    
        8.567       8.411       8.226       8.009       7.832       7.715       7.585       7.360       7.064       6.783    
        6.571       6.348       6.014       5.691       5.476       5.401       5.386       5.408       5.439       5.443    
        5.415       5.370       5.270       5.083       4.789       4.433       4.125       3.742       3.339       2.945    
        2.490       2.016       1.494       1.120      0.9548      0.7951      0.6192      0.4088      0.1895       0.000    
  29    10.00       9.857       9.715       9.569       9.417       9.301       9.179       9.027       8.881       8.728    
        8.572       8.416       8.233       8.048       7.896       7.756       7.578       7.322       7.051       6.835    
        6.662       6.471       6.206       5.924       5.745       5.640       5.563       5.521       5.495       5.452    
        5.403       5.330       5.214       5.006       4.699       4.410       4.132       3.778       3.329       2.833    
        2.419       1.915       1.396       1.104      0.9579      0.8008      0.6146      0.3994      0.1986       0.000    
  30    10.00       9.837       9.692       9.517       9.364       9.257       9.127       8.992       8.879       8.741    
        8.579       8.406       8.237       8.087       7.949       7.788       7.555       7.315       7.102       6.906    
        6.762       6.579       6.338       6.091       5.881       5.768       5.675       5.594       5.526       5.455    
        5.376       5.293       5.159       4.920       4.663       4.441       4.164       3.708       3.165       2.670    
        2.257       1.799       1.405       1.134      0.9799      0.8028      0.6038      0.4187      0.2053       0.000    
  31    10.00       9.815       9.648       9.481       9.343       9.232       9.108       8.988       8.874       8.737    
        8.574       8.396       8.248       8.120       7.984       7.796       7.564       7.361       7.199       7.031    
        6.879       6.672       6.427       6.218       5.999       5.822       5.712       5.615       5.538       5.446    
        5.351       5.250       5.093       4.881       4.648       4.412       3.992       3.503       3.061       2.583    
        2.195       1.740       1.358       1.163      0.9983      0.8315      0.6244      0.4193      0.1987       0.000    
  32    10.00       9.800       9.621       9.478       9.361       9.250       9.119       8.982       8.842       8.711    
        8.547       8.393       8.258       8.113       7.981       7.816       7.636       7.486       7.318       7.141    
        6.980       6.771       6.530       6.318       6.079       5.848       5.725       5.625       5.522       5.402    
        5.296       5.213       5.024       4.795       4.596       4.287       3.790       3.344       2.963       2.530    
        2.080       1.659       1.380       1.230       1.050      0.8389      0.6198      0.3984      0.1987       0.000    
  33    10.00       9.794       9.641       9.525       9.407       9.277       9.118       8.964       8.812       8.661    
        8.523       8.392       8.257       8.117       7.969       7.839       7.705       7.572       7.426       7.243    
        7.043       6.844       6.649       6.398       6.108       5.859       5.708       5.602       5.478       5.349    
        5.250       5.130       4.939       4.743       4.473       4.070       3.584       3.218       2.858       2.360    
        1.956       1.683       1.461       1.283       1.077      0.8556      0.5871      0.3506      0.1579       0.000    
  34    10.00       9.812       9.686       9.577       9.445       9.284       9.115       8.933       8.764       8.636    
        8.514       8.393       8.270       8.123       7.989       7.860       7.741       7.632       7.484       7.284    
        7.092       6.918       6.717       6.444       6.124       5.848       5.675       5.550       5.431       5.294    
        5.179       5.050       4.883       4.647       4.332       3.849       3.392       3.077       2.659       2.227    
        1.981       1.802       1.588       1.358       1.088      0.7759      0.4744      0.2807      0.1163       0.000    
  35    10.00       9.843       9.729       9.618       9.476       9.293       9.099       8.895       8.735       8.625    
        8.543       8.419       8.278       8.118       7.973       7.879       7.790       7.671       7.510       7.319    
        7.137       6.960       6.765       6.437       6.070       5.807       5.627       5.504       5.375       5.226    
        5.121       4.985       4.798       4.493       4.016       3.538       3.247       2.930       2.511       2.256    
        2.086       1.882       1.667       1.443       1.101      0.6597      0.3642      0.2393      0.1214       0.000    
  36    10.00       9.861       9.762       9.655       9.503       9.284       9.046       8.854       8.740       8.656    
        8.541       8.395       8.263       8.118       7.991       7.897       7.806       7.693       7.563       7.379    
        7.185       6.999       6.741       6.371       6.021       5.762       5.597       5.454       5.289       5.163    
        5.036       4.874       4.579       4.141       3.723       3.413       3.150       2.822       2.497       2.331    
        2.158       1.975       1.758       1.469       1.004      0.5551      0.3419      0.2187      0.1124       0.000    
  37    10.00       9.875       9.798       9.682       9.479       9.238       9.027       8.878       8.783       8.680    
        8.527       8.371       8.254       8.128       8.005       7.912       7.823       7.717       7.574       7.404    
        7.244       7.027       6.689       6.337       5.993       5.702       5.495       5.317       5.165       5.046    
        4.907       4.666       4.237       3.862       3.590       3.329       3.066       2.814       2.586       2.401    
        2.235       2.030       1.783       1.403      0.9189      0.5347      0.3200      0.2034      0.1020       0.000    
  38    10.00       9.893       9.800       9.672       9.461       9.212       9.033       8.922       8.822       8.696    
        8.532       8.368       8.252       8.134       8.009       7.912       7.832       7.734       7.586       7.440    
        7.284       7.007       6.613       6.230       5.868       5.577       5.346       5.151       5.015       4.900    
        4.730       4.337       3.983       3.767       3.508       3.258       3.073       2.867       2.660       2.483    
        2.289       2.010       1.698       1.286      0.8062      0.5118      0.3599      0.2242      0.1006       0.000    
  39    10.00       9.892       9.785       9.651       9.446       9.221       9.059       8.959       8.832       8.691    
        8.558       8.391       8.258       8.142       8.020       7.914       7.821       7.720       7.599       7.464    
        7.261       6.949       6.524       6.088       5.719       5.440       5.174       4.971       4.884       4.764    
        4.471       4.103       3.908       3.668       3.433       3.263       3.115       2.928       2.729       2.565    
        2.283       1.890       1.524       1.081      0.7184      0.5542      0.4124      0.2685      0.1381       0.000    
  40    10.00       9.882       9.788       9.651       9.462       9.272       9.113       8.978       8.828       8.699    
        8.597       8.430       8.259       8.140       8.026       7.901       7.796       7.717       7.607       7.424    
        7.178       6.812       6.380       5.967       5.600       5.303       4.989       4.836       4.756       4.594    
        4.335       4.087       3.826       3.588       3.430       3.288       3.148       2.975       2.794       2.579    
        2.199       1.771       1.376       1.018      0.7704      0.6013      0.4601      0.3247      0.1594       0.000    
  41    10.00       9.898       9.822       9.688       9.493       9.294       9.140       9.018       8.869       8.715    
        8.591       8.432       8.272       8.159       8.023       7.873       7.786       7.694       7.539       7.329    
        7.072       6.711       6.276       5.877       5.506       5.101       4.821       4.746       4.650       4.535    
        4.341       4.043       3.788       3.606       3.453       3.329       3.177       3.014       2.826       2.491    
        2.048       1.633       1.291       1.028      0.8133      0.6564      0.5055      0.3571      0.1880       0.000    
  42    10.00       9.923       9.839       9.709       9.539       9.347       9.172       9.046       8.909       8.734    
        8.573       8.421       8.281       8.171       8.023       7.867       7.756       7.627       7.456       7.214    
        6.915       6.521       6.141       5.739       5.251       4.903       4.771       4.709       4.630       4.511    
        4.284       4.026       3.793       3.612       3.492       3.361       3.227       3.051       2.752       2.309    
        1.923       1.615       1.319       1.022      0.8233      0.6900      0.5453      0.3716      0.2062       0.000    
  43    10.00       9.939       9.848       9.713       9.544       9.383       9.227       9.084       8.911       8.726    
        8.577       8.422       8.283       8.179       8.037       7.853       7.702       7.554       7.321       7.017    
        6.730       6.353       6.006       5.542       5.085       4.864       4.761       4.690       4.617       4.492    
        4.277       4.045       3.824       3.651       3.537       3.408       3.232       2.981       2.545       2.155    
        1.916       1.644       1.332       1.025      0.8146      0.6914      0.5800      0.4017      0.1882       0.000    
  44    10.00       9.931       9.853       9.712       9.557       9.441       9.281       9.082       8.885       8.731    
        8.580       8.422       8.299       8.187       8.017       7.814       7.638       7.462       7.188       6.891    
        6.552       6.181       5.813       5.353       5.015       4.853       4.764       4.704       4.624       4.465    
        4.250       4.066       3.873       3.714       3.597       3.416       3.184       2.825       2.386       2.131    
        1.912       1.628       1.318       1.038      0.8240      0.6930      0.5802      0.3934      0.1733       0.000    
  45    10.00       9.917       9.822       9.708       9.595       9.443       9.272       9.080       8.885       8.728    
        8.570       8.426       8.316       8.185       7.995       7.776       7.578       7.381       7.086       6.740    
        6.354       5.966       5.573       5.239       5.008       4.871       4.785       4.720       4.616       4.488    
        4.303       4.094       3.923       3.758       3.588       3.398       3.145       2.766       2.387       2.089    
        1.841       1.575       1.286       1.036      0.8494      0.7409      0.5725      0.3408      0.1553       0.000    
  46    10.00       9.899       9.801       9.709       9.579       9.404       9.237       9.080       8.886       8.717    
        8.576       8.443       8.330       8.170       7.967       7.770       7.561       7.302       6.987       6.613    
        6.163       5.781       5.470       5.218       5.043       4.921       4.814       4.724       4.642       4.500    
        4.303       4.122       3.953       3.762       3.594       3.416       3.132       2.695       2.300       2.035    
        1.803       1.548       1.278       1.058      0.9142      0.7746      0.5189      0.2551      0.1109       0.000    
  47    10.00       9.892       9.792       9.665       9.513       9.369       9.226       9.055       8.877       8.727    
        8.597       8.477       8.315       8.141       7.959       7.767       7.534       7.234       6.941       6.488    
        6.003       5.707       5.441       5.244       5.081       4.961       4.851       4.743       4.648       4.500    
        4.294       4.115       3.943       3.764       3.620       3.404       3.010       2.620       2.291       2.010    
        1.807       1.567       1.326       1.115      0.9360      0.7103      0.4267      0.2230      9.2888E-02   0.000    
  48    10.00       9.880       9.759       9.623       9.486       9.358       9.213       9.056       8.891       8.743    
        8.611       8.468       8.290       8.111       7.932       7.741       7.517       7.235       6.871       6.423    
        6.007       5.703       5.445       5.264       5.130       4.981       4.869       4.779       4.661       4.460    
        4.258       4.083       3.926       3.795       3.605       3.320       2.947       2.597       2.285       2.039    
        1.820       1.591       1.374       1.135      0.8676      0.5769      0.3646      0.2162      9.7697E-02   0.000    
  49    10.00       9.869       9.737       9.604       9.491       9.359       9.205       9.051       8.918       8.763    
        8.605       8.424       8.249       8.099       7.895       7.709       7.522       7.207       6.848       6.492    
        6.052       5.714       5.457       5.298       5.140       4.980       4.893       4.805       4.614       4.372    
        4.200       4.061       3.949       3.777       3.557       3.304       2.931       2.582       2.338       2.076    
        1.818       1.608       1.377       1.096      0.7680      0.5142      0.3646      0.2353      0.1207       0.000    
  50    10.00       9.874       9.742       9.606       9.483       9.353       9.216       9.064       8.924       8.786    
        8.591       8.402       8.242       8.040       7.833       7.691       7.514       7.269       6.913       6.561    
        6.113       5.687       5.463       5.302       5.137       5.006       4.901       4.783       4.557       4.328    
        4.186       4.072       3.940       3.762       3.559       3.317       2.941       2.583       2.346       2.109    
        1.865       1.600       1.340       1.039      0.7159      0.5262      0.3923      0.2659      0.1604       0.000    

 HEAD WILL BE SAVED ON UNIT   51 AT END OF TIME STEP   9, STRESS PERIOD    2

 DRAWDOWN WILL BE SAVED ON UNIT   52 AT END OF TIME STEP   9, STRESS PERIOD    2
1
  VOLUMETRIC BUDGET FOR ENTIRE MODEL AT END OF TIME STEP  9 IN STRESS PERIOD   2
  ------------------------------------------------------------------------------

     CUMULATIVE VOLUMES      L**3       RATES FOR THIS TIME STEP      L**3/T
     ------------------                 ------------------------

           IN:                                      IN:
           ---                                      ---
             STORAGE =        4499.9927               STORAGE =         499.9911
       CONSTANT HEAD =        3724.6096         CONSTANT HEAD =         372.4685
               WELLS =           0.0000                 WELLS =           0.0000

            TOTAL IN =        8224.6025              TOTAL IN =         872.4596

          OUT:                                     OUT:
          ----                                     ----
             STORAGE =       1.0863E-02               STORAGE =       2.5497E-04
       CONSTANT HEAD =        3724.5903         CONSTANT HEAD =         372.4590
               WELLS =        4500.0000                 WELLS =         500.0000

           TOTAL OUT =        8224.6016             TOTAL OUT =         872.4593

            IN - OUT =       9.7656E-04              IN - OUT =       3.0518E-04

 PERCENT DISCREPANCY =           0.00     PERCENT DISCREPANCY =           0.00






          TIME SUMMARY AT END OF TIME STEP   9 IN STRESS PERIOD    2
                    SECONDS     MINUTES      HOURS       DAYS        YEARS
                    -----------------------------------------------------------
   TIME STEP LENGTH  86400.      1440.0      24.000      1.0000     2.73785E-03
 STRESS PERIOD TIME 7.77600E+05  12960.      216.00      9.0000     2.46407E-02
         TOTAL TIME 8.64000E+05  14400.      240.00      10.000     2.73785E-02
1
 
 SOLVING FOR HEAD 

 OUTPUT CONTROL FOR STRESS PERIOD    2   TIME STEP  10
    SAVE HEAD FOR ALL LAYERS
    SAVE DRAWDOWN FOR ALL LAYERS
    SAVE BUDGET
    PRINT HEAD FOR ALL LAYERS
    PRINT BUDGET
 UBDSV1 SAVING "         STORAGE" ON UNIT  53 AT TIME STEP 10, STRESS PERIOD   2
 UBDSV2 SAVING "   CONSTANT HEAD" ON UNIT  53 AT TIME STEP 10, STRESS PERIOD   2
 UBDSV1 SAVING "FLOW RIGHT FACE " ON UNIT  53 AT TIME STEP 10, STRESS PERIOD   2
 UBDSV1 SAVING "FLOW FRONT FACE " ON UNIT  53 AT TIME STEP 10, STRESS PERIOD   2
1
              HEAD IN LAYER   1 AT END OF TIME STEP  10 IN STRESS PERIOD    2
  ---------------------------------------------------------------------------

            1           2           3           4           5           6           7           8           9          10
           11          12          13          14          15          16          17          18          19          20
           21          22          23          24          25          26          27          28          29          30
           31          32          33          34          35          36          37          38          39          40
           41          42          43          44          45          46          47          48          49          50
 ........................................................................................................................
   1    10.00       9.953       9.906       9.851       9.808       9.771       9.722       9.655       9.581       9.513    
        9.362       9.174       9.035       8.881       8.716       8.549       8.395       8.217       7.979       7.743    
        7.582       7.397       7.154       6.907       6.687       6.495       6.222       5.973       5.797       5.612    
        5.451       5.345       5.228       5.093       4.964       4.804       4.632       4.400       4.135       3.846    
        3.475       3.099       2.607       2.072       1.670       1.381       1.165      0.9189      0.5394       0.000    
   2    10.00       9.948       9.898       9.852       9.815       9.779       9.725       9.656       9.588       9.496    
        9.350       9.181       9.025       8.884       8.732       8.561       8.377       8.195       7.973       7.735    
        7.559       7.408       7.149       6.883       6.688       6.471       6.208       5.970       5.769       5.595    
        5.458       5.359       5.259       5.114       4.964       4.805       4.607       4.391       4.134       3.805    
        3.458       3.137       2.620       2.088       1.732       1.474       1.225      0.9490      0.5728       0.000    
   3    10.00       9.940       9.898       9.866       9.831       9.794       9.735       9.653       9.571       9.471    
        9.338       9.189       9.039       8.897       8.716       8.502       8.324       8.166       7.963       7.754    
        7.573       7.359       7.106       6.872       6.660       6.418       6.170       5.935       5.728       5.596    
        5.481       5.384       5.283       5.124       4.966       4.797       4.602       4.360       4.074       3.821    
        3.512       3.074       2.570       2.187       1.883       1.582       1.276      0.9619      0.5428       0.000    
   4    10.00       9.940       9.903       9.874       9.850       9.811       9.744       9.649       9.552       9.453    
        9.326       9.192       9.042       8.865       8.644       8.446       8.318       8.141       7.945       7.782    
        7.537       7.268       7.046       6.839       6.634       6.348       6.074       5.889       5.743       5.626    
        5.520       5.418       5.309       5.125       4.929       4.778       4.572       4.322       4.075       3.851    
        3.500       3.017       2.635       2.311       1.984       1.642       1.273      0.9056      0.4639       0.000    
   5    10.00       9.945       9.911       9.882       9.860       9.820       9.749       9.642       9.533       9.434    
        9.327       9.190       8.999       8.792       8.605       8.448       8.291       8.126       7.942       7.715    
        7.435       7.213       7.028       6.818       6.560       6.266       6.039       5.904       5.783       5.666    
        5.545       5.420       5.297       5.122       4.922       4.738       4.553       4.353       4.126       3.829    
        3.430       3.060       2.732       2.404       2.046       1.648       1.184      0.7630      0.3950       0.000    
   6    10.00       9.954       9.921       9.893       9.863       9.819       9.743       9.628       9.533       9.428    
        9.308       9.139       8.931       8.759       8.588       8.411       8.252       8.105       7.901       7.646    
        7.399       7.186       7.000       6.744       6.466       6.241       6.055       5.926       5.797       5.677    
        5.569       5.431       5.275       5.095       4.902       4.743       4.578       4.395       4.154       3.833    
        3.481       3.121       2.784       2.453       2.064       1.582       1.082      0.7177      0.3694       0.000    
   7    10.00       9.960       9.931       9.902       9.870       9.817       9.716       9.605       9.507       9.378    
        9.256       9.078       8.890       8.714       8.540       8.363       8.208       8.075       7.845       7.574    
        7.354       7.142       6.935       6.688       6.450       6.243       6.079       5.934       5.799       5.698    
        5.586       5.438       5.271       5.083       4.913       4.770       4.618       4.427       4.176       3.881    
        3.528       3.157       2.806       2.440       2.055       1.549       1.036      0.6838      0.3236       0.000    
   8    10.00       9.967       9.941       9.909       9.872       9.787       9.665       9.560       9.439       9.316    
        9.182       9.002       8.843       8.667       8.475       8.305       8.171       8.016       7.803       7.542    
        7.290       7.096       6.925       6.675       6.434       6.249       6.065       5.914       5.815       5.720    
        5.589       5.440       5.295       5.124       4.938       4.786       4.669       4.518       4.267       3.922    
        3.534       3.202       2.873       2.445       2.016       1.450      0.9598      0.6700      0.3100       0.000    
   9    10.00       9.974       9.945       9.909       9.847       9.736       9.607       9.486       9.380       9.254    
        9.097       8.937       8.782       8.615       8.419       8.260       8.137       7.958       7.751       7.494    
        7.273       7.084       6.854       6.607       6.404       6.241       6.054       5.919       5.821       5.715    
        5.594       5.456       5.318       5.166       5.003       4.849       4.720       4.583       4.321       3.945    
        3.585       3.286       2.937       2.522       1.886       1.248      0.9145      0.5667      0.2162       0.000    
  10    10.00       9.974       9.944       9.894       9.799       9.668       9.526       9.432       9.332       9.185    
        9.048       8.892       8.738       8.561       8.383       8.241       8.080       7.897       7.683       7.477    
        7.264       6.989       6.758       6.562       6.387       6.242       6.071       5.925       5.830       5.731    
        5.598       5.450       5.324       5.180       5.034       4.923       4.790       4.628       4.326       3.951    
        3.664       3.399       2.996       2.371       1.635       1.173      0.8303      0.5068      0.2528       0.000    
  11    10.00       9.974       9.935       9.857       9.751       9.605       9.480       9.402       9.284       9.159    
        9.028       8.866       8.684       8.496       8.348       8.200       8.053       7.859       7.656       7.455    
        7.171       6.908       6.718       6.540       6.370       6.214       6.057       5.934       5.847       5.752    
        5.603       5.460       5.348       5.214       5.085       4.958       4.808       4.631       4.345       4.039    
        3.733       3.386       2.948       2.259       1.569       1.103      0.7784      0.5903      0.3260       0.000    
  12    10.00       9.973       9.917       9.818       9.680       9.537       9.438       9.360       9.258       9.145    
        9.004       8.833       8.652       8.486       8.335       8.173       8.007       7.816       7.615       7.356    
        7.082       6.881       6.697       6.518       6.336       6.178       6.060       5.956       5.849       5.738    
        5.607       5.487       5.384       5.270       5.149       5.020       4.851       4.630       4.360       4.081    
        3.753       3.373       2.773       2.000       1.415       1.087      0.8646      0.6266      0.3570       0.000    
  13    10.00       9.964       9.878       9.743       9.600       9.478       9.399       9.331       9.245       9.137    
        8.990       8.814       8.649       8.516       8.343       8.146       7.954       7.750       7.533       7.289    
        7.051       6.838       6.646       6.466       6.294       6.172       6.079       5.954       5.819       5.720    
        5.625       5.520       5.422       5.318       5.202       5.083       4.923       4.664       4.381       4.048    
        3.672       3.195       2.502       1.876       1.449       1.169      0.9092      0.6282      0.3103       0.000    
  14    10.00       9.934       9.812       9.664       9.533       9.438       9.385       9.324       9.242       9.126    
        8.965       8.816       8.680       8.542       8.352       8.122       7.918       7.691       7.453       7.206    
        6.981       6.775       6.583       6.409       6.265       6.180       6.073       5.929       5.807       5.721    
        5.645       5.546       5.456       5.352       5.242       5.140       4.952       4.683       4.379       3.965    
        3.522       2.963       2.429       1.970       1.544       1.214      0.9254      0.6289      0.2800       0.000    
  15    10.00       9.877       9.743       9.612       9.507       9.435       9.377       9.320       9.240       9.133    
        8.993       8.848       8.717       8.528       8.314       8.099       7.871       7.639       7.364       7.103    
        6.899       6.704       6.522       6.376       6.262       6.164       6.050       5.908       5.802       5.731    
        5.652       5.563       5.485       5.387       5.276       5.163       4.963       4.702       4.322       3.874    
        3.414       2.908       2.473       1.998       1.638       1.286      0.9368      0.6227      0.2553       0.000    
  16    10.00       9.858       9.713       9.594       9.504       9.438       9.380       9.327       9.251       9.142    
        9.012       8.876       8.721       8.493       8.265       8.090       7.871       7.565       7.259       7.016    
        6.803       6.635       6.492       6.360       6.237       6.142       6.020       5.895       5.802       5.722    
        5.656       5.583       5.492       5.402       5.300       5.171       4.983       4.667       4.251       3.839    
        3.442       2.950       2.458       2.038       1.698       1.328      0.9336      0.5578      0.2099       0.000    
  17    10.00       9.840       9.695       9.599       9.520       9.454       9.396       9.337       9.256       9.155    
        9.036       8.871       8.666       8.428       8.239       8.077       7.826       7.497       7.182       6.947    
        6.766       6.583       6.425       6.303       6.194       6.086       5.971       5.877       5.790       5.719    
        5.669       5.597       5.496       5.399       5.296       5.156       4.935       4.660       4.313       3.873    
        3.413       2.893       2.437       2.065       1.717       1.338      0.9533      0.5810      0.2455       0.000    
  18    10.00       9.831       9.695       9.613       9.542       9.478       9.421       9.351       9.271       9.164    
        9.025       8.835       8.611       8.412       8.229       8.004       7.723       7.431       7.155       6.924    
        6.708       6.476       6.333       6.229       6.132       6.015       5.929       5.847       5.782       5.729    
        5.676       5.603       5.495       5.382       5.272       5.119       4.899       4.667       4.362       3.950    
        3.348       2.793       2.420       2.067       1.770       1.371      0.9473      0.5693      0.2451       0.000    
  19    10.00       9.839       9.726       9.642       9.566       9.502       9.435       9.370       9.297       9.174    
        9.012       8.811       8.592       8.375       8.144       7.908       7.651       7.373       7.103       6.859    
        6.613       6.395       6.275       6.185       6.063       5.952       5.877       5.807       5.772       5.734    
        5.682       5.602       5.477       5.357       5.254       5.126       4.907       4.646       4.335       3.852    
        3.248       2.776       2.405       2.057       1.725       1.314      0.9093      0.5655      0.2664       0.000    
  20    10.00       9.849       9.752       9.678       9.605       9.529       9.450       9.380       9.306       9.184    
        9.008       8.801       8.550       8.275       8.017       7.828       7.574       7.279       7.039       6.796    
        6.572       6.385       6.238       6.110       5.962       5.878       5.817       5.768       5.748       5.725    
        5.688       5.588       5.456       5.358       5.250       5.108       4.857       4.591       4.237       3.700    
        3.180       2.802       2.372       1.976       1.616       1.212      0.9116      0.5613      0.2488       0.000    
  21    10.00       9.871       9.784       9.710       9.630       9.557       9.470       9.394       9.314       9.177    
        8.990       8.741       8.434       8.120       7.884       7.715       7.481       7.264       7.038       6.776    
        6.558       6.357       6.174       5.946       5.817       5.768       5.701       5.700       5.708       5.690    
        5.654       5.565       5.459       5.369       5.250       5.041       4.784       4.551       4.041       3.488    
        3.105       2.701       2.264       1.897       1.516       1.163      0.8252      0.4944      0.2483       0.000    
  22    10.00       9.899       9.808       9.727       9.649       9.581       9.483       9.385       9.293       9.152    
        8.927       8.620       8.282       7.992       7.791       7.616       7.437       7.280       7.040       6.785    
        6.559       6.281       5.965       5.709       5.608       5.512       5.510       5.580       5.605       5.607    
        5.590       5.533       5.463       5.377       5.244       5.000       4.725       4.309       3.746       3.397    
        2.988       2.555       2.165       1.813       1.489       1.070      0.7159      0.4740      0.2664       0.000    
  23    10.00       9.900       9.813       9.739       9.658       9.567       9.457       9.369       9.288       9.113    
        8.839       8.513       8.207       7.957       7.753       7.605       7.438       7.236       7.007       6.804    
        6.499       6.090       5.744       5.477       5.094       5.094       5.283       5.394       5.463       5.515    
        5.519       5.497       5.465       5.377       5.213       4.941       4.543       4.071       3.618       3.199    
        2.815       2.459       2.086       1.807       1.397      0.9724      0.6963      0.4558      0.2366       0.000    
  24    10.00       9.922       9.823       9.727       9.633       9.529       9.430       9.355       9.265       9.059    
        8.749       8.442       8.191       7.975       7.782       7.591       7.388       7.204       7.021       6.785    
        6.421       6.013       5.601       4.819       3.959       4.463       4.938       5.204       5.338       5.432    
        5.461       5.466       5.443       5.335       5.158       4.822       4.380       3.982       3.481       3.038    
        2.739       2.398       2.045       1.689       1.250      0.9021      0.6698      0.4269      0.1883       0.000    
  25    10.00       9.915       9.800       9.683       9.573       9.480       9.404       9.329       9.218       9.004    
        8.679       8.395       8.203       8.003       7.782       7.585       7.397       7.238       7.072       6.777    
        6.359       5.951       5.287       3.995       1.237       3.898       4.656       5.079       5.283       5.383    
        5.427       5.439       5.394       5.268       5.084       4.732       4.263       3.807       3.400       3.017    
        2.674       2.304       1.903       1.528       1.112      0.8285      0.6672      0.4151      0.1538       0.000    
  26    10.00       9.893       9.746       9.615       9.527       9.451       9.377       9.284       9.153       8.888    
        8.586       8.390       8.207       8.008       7.802       7.613       7.438       7.285       7.081       6.769    
        6.401       5.954       5.376       4.685       4.039       4.386       4.831       5.122       5.282       5.370    
        5.407       5.402       5.334       5.202       4.993       4.612       4.113       3.743       3.408       2.992    
        2.631       2.212       1.752       1.351       1.011      0.8111      0.6313      0.3701      0.1575       0.000    
  27    10.00       9.870       9.714       9.591       9.517       9.418       9.320       9.202       9.028       8.778    
        8.566       8.392       8.206       8.011       7.808       7.658       7.539       7.335       7.078       6.758    
        6.439       6.123       5.672       5.232       4.878       4.938       5.101       5.233       5.323       5.374    
        5.394       5.364       5.290       5.138       4.893       4.487       4.096       3.766       3.377       2.984    
        2.609       2.104       1.578       1.202      0.9653      0.7981      0.6005      0.3914      0.1887       0.000    
  28    10.00       9.853       9.738       9.600       9.474       9.353       9.245       9.107       8.934       8.741    
        8.566       8.409       8.223       8.004       7.823       7.704       7.570       7.339       7.034       6.745    
        6.527       6.297       5.957       5.629       5.412       5.338       5.325       5.350       5.388       5.400    
        5.381       5.342       5.249       5.069       4.782       4.430       4.123       3.741       3.338       2.945    
        2.490       2.016       1.494       1.120      0.9548      0.7951      0.6192      0.4088      0.1895       0.000    
  29    10.00       9.857       9.715       9.569       9.417       9.301       9.179       9.026       8.880       8.728    
        8.571       8.414       8.230       8.043       7.889       7.747       7.565       7.301       7.022       6.799    
        6.621       6.426       6.155       5.868       5.688       5.584       5.509       5.471       5.453       5.417    
        5.373       5.306       5.196       4.994       4.693       4.407       4.131       3.777       3.329       2.833    
        2.419       1.915       1.396       1.104      0.9579      0.8008      0.6146      0.3994      0.1986       0.000    
  30    10.00       9.837       9.692       9.517       9.364       9.257       9.127       8.992       8.879       8.740    
        8.578       8.405       8.234       8.083       7.944       7.779       7.542       7.295       7.076       6.874    
        6.726       6.538       6.293       6.042       5.830       5.719       5.630       5.555       5.492       5.425    
        5.351       5.273       5.144       4.910       4.657       4.438       4.162       3.707       3.165       2.670    
        2.257       1.799       1.405       1.134      0.9799      0.8028      0.6038      0.4187      0.2053       0.000    
  31    10.00       9.815       9.648       9.481       9.342       9.232       9.108       8.988       8.874       8.736    
        8.573       8.395       8.246       8.117       7.979       7.788       7.552       7.344       7.177       7.004    
        6.848       6.637       6.389       6.178       5.957       5.782       5.677       5.584       5.509       5.421    
        5.331       5.233       5.080       4.873       4.643       4.409       3.990       3.503       3.061       2.583    
        2.195       1.740       1.358       1.163      0.9983      0.8315      0.6244      0.4193      0.1987       0.000    
  32    10.00       9.800       9.621       9.478       9.361       9.250       9.119       8.982       8.842       8.711    
        8.546       8.391       8.256       8.110       7.977       7.810       7.627       7.473       7.301       7.120    
        6.957       6.745       6.501       6.286       6.047       5.817       5.697       5.599       5.499       5.383    
        5.280       5.199       5.014       4.788       4.591       4.284       3.789       3.344       2.963       2.530    
        2.080       1.659       1.380       1.230       1.050      0.8389      0.6198      0.3984      0.1987       0.000    
  33    10.00       9.794       9.640       9.525       9.407       9.277       9.118       8.963       8.812       8.660    
        8.522       8.391       8.255       8.114       7.965       7.833       7.697       7.562       7.415       7.229    
        7.027       6.827       6.629       6.376       6.085       5.835       5.686       5.581       5.461       5.335    
        5.238       5.119       4.932       4.738       4.470       4.068       3.583       3.218       2.858       2.360    
        1.956       1.683       1.461       1.283       1.077      0.8556      0.5871      0.3506      0.1579       0.000    
  34    10.00       9.812       9.686       9.577       9.445       9.284       9.115       8.933       8.764       8.636    
        8.513       8.392       8.268       8.120       7.985       7.856       7.735       7.625       7.476       7.274    
        7.081       6.905       6.703       6.428       6.108       5.831       5.658       5.535       5.417       5.283    
        5.170       5.042       4.877       4.643       4.329       3.848       3.392       3.077       2.659       2.227    
        1.981       1.802       1.588       1.358       1.088      0.7759      0.4744      0.2807      0.1163       0.000    
  35    10.00       9.843       9.729       9.618       9.476       9.293       9.099       8.895       8.735       8.625    
        8.542       8.418       8.277       8.116       7.971       7.875       7.786       7.666       7.504       7.312    
        7.128       6.951       6.755       6.427       6.059       5.796       5.615       5.493       5.365       5.217    
        5.113       4.979       4.793       4.490       4.015       3.538       3.246       2.930       2.511       2.256    
        2.086       1.882       1.667       1.443       1.101      0.6597      0.3642      0.2393      0.1214       0.000    
  36    10.00       9.861       9.762       9.655       9.503       9.284       9.046       8.854       8.740       8.656    
        8.541       8.394       8.261       8.117       7.989       7.894       7.803       7.689       7.559       7.375    
        7.180       6.992       6.734       6.365       6.014       5.754       5.589       5.446       5.281       5.156    
        5.030       4.869       4.576       4.139       3.722       3.412       3.149       2.822       2.497       2.331    
        2.158       1.975       1.758       1.469       1.004      0.5551      0.3419      0.2187      0.1124       0.000    
  37    10.00       9.875       9.798       9.682       9.479       9.238       9.027       8.878       8.783       8.680    
        8.527       8.370       8.253       8.127       8.004       7.910       7.821       7.714       7.571       7.401    
        7.241       7.023       6.685       6.333       5.989       5.697       5.490       5.312       5.161       5.042    
        4.903       4.663       4.235       3.861       3.590       3.329       3.065       2.814       2.586       2.401    
        2.235       2.030       1.783       1.403      0.9189      0.5347      0.3200      0.2034      0.1020       0.000    
  38    10.00       9.893       9.800       9.672       9.461       9.212       9.033       8.922       8.822       8.696    
        8.532       8.367       8.251       8.133       8.007       7.910       7.830       7.733       7.584       7.438    
        7.282       7.005       6.612       6.228       5.866       5.574       5.343       5.149       5.012       4.898    
        4.727       4.336       3.982       3.767       3.508       3.258       3.073       2.867       2.660       2.483    
        2.289       2.010       1.698       1.286      0.8062      0.5118      0.3599      0.2242      0.1006       0.000    
  39    10.00       9.892       9.785       9.651       9.446       9.221       9.059       8.959       8.832       8.691    
        8.557       8.391       8.258       8.141       8.019       7.913       7.820       7.718       7.598       7.463    
        7.260       6.948       6.523       6.087       5.718       5.439       5.173       4.970       4.883       4.763    
        4.470       4.103       3.907       3.667       3.433       3.263       3.115       2.928       2.729       2.565    
        2.283       1.889       1.524       1.081      0.7184      0.5542      0.4124      0.2685      0.1381       0.000    
  40    10.00       9.882       9.788       9.651       9.462       9.272       9.113       8.978       8.828       8.698    
        8.596       8.429       8.259       8.140       8.025       7.901       7.795       7.716       7.606       7.423    
        7.178       6.811       6.380       5.967       5.599       5.302       4.988       4.836       4.755       4.594    
        4.334       4.087       3.826       3.588       3.430       3.288       3.148       2.975       2.794       2.579    
        2.199       1.771       1.376       1.018      0.7704      0.6013      0.4601      0.3247      0.1594       0.000    
  41    10.00       9.898       9.822       9.688       9.493       9.294       9.140       9.017       8.869       8.714    
        8.591       8.432       8.272       8.159       8.022       7.872       7.785       7.694       7.538       7.329    
        7.071       6.710       6.276       5.877       5.506       5.101       4.820       4.745       4.650       4.535    
        4.341       4.043       3.788       3.606       3.453       3.329       3.177       3.014       2.826       2.491    
        2.048       1.633       1.291       1.028      0.8133      0.6564      0.5055      0.3571      0.1880       0.000    
  42    10.00       9.923       9.839       9.709       9.539       9.347       9.172       9.046       8.909       8.734    
        8.573       8.421       8.281       8.171       8.023       7.866       7.755       7.627       7.455       7.214    
        6.915       6.521       6.141       5.739       5.251       4.903       4.770       4.708       4.630       4.511    
        4.284       4.025       3.793       3.612       3.492       3.360       3.227       3.051       2.752       2.309    
        1.923       1.615       1.319       1.022      0.8233      0.6900      0.5453      0.3716      0.2062       0.000    
  43    10.00       9.939       9.848       9.713       9.544       9.383       9.227       9.084       8.910       8.726    
        8.577       8.422       8.282       8.179       8.036       7.853       7.702       7.554       7.321       7.017    
        6.729       6.353       6.006       5.542       5.085       4.864       4.761       4.690       4.617       4.492    
        4.277       4.045       3.824       3.651       3.537       3.408       3.232       2.981       2.545       2.155    
        1.916       1.644       1.332       1.025      0.8146      0.6914      0.5800      0.4017      0.1882       0.000    
  44    10.00       9.931       9.853       9.712       9.557       9.441       9.281       9.082       8.885       8.731    
        8.580       8.422       8.299       8.187       8.017       7.814       7.638       7.462       7.188       6.891    
        6.552       6.181       5.813       5.353       5.015       4.853       4.764       4.704       4.624       4.465    
        4.250       4.066       3.873       3.714       3.597       3.416       3.184       2.825       2.386       2.131    
        1.912       1.628       1.318       1.038      0.8240      0.6930      0.5802      0.3934      0.1733       0.000    
  45    10.00       9.917       9.822       9.708       9.595       9.443       9.272       9.080       8.885       8.728    
        8.570       8.426       8.316       8.184       7.995       7.776       7.578       7.381       7.086       6.740    
        6.354       5.966       5.573       5.239       5.008       4.871       4.785       4.720       4.616       4.488    
        4.303       4.094       3.922       3.758       3.588       3.398       3.145       2.766       2.387       2.089    
        1.841       1.575       1.286       1.036      0.8494      0.7409      0.5725      0.3408      0.1553       0.000    
  46    10.00       9.899       9.801       9.709       9.579       9.404       9.237       9.080       8.886       8.717    
        8.576       8.442       8.330       8.170       7.967       7.770       7.561       7.302       6.987       6.613    
        6.163       5.781       5.470       5.218       5.043       4.921       4.814       4.724       4.642       4.500    
        4.303       4.122       3.953       3.762       3.594       3.416       3.132       2.695       2.300       2.035    
        1.803       1.548       1.278       1.058      0.9142      0.7746      0.5189      0.2551      0.1109       0.000    
  47    10.00       9.892       9.792       9.665       9.513       9.369       9.226       9.055       8.877       8.727    
        8.597       8.477       8.315       8.141       7.959       7.767       7.534       7.234       6.941       6.488    
        6.003       5.707       5.441       5.244       5.081       4.961       4.851       4.743       4.648       4.500    
        4.294       4.115       3.943       3.764       3.620       3.404       3.010       2.620       2.291       2.010    
        1.807       1.567       1.326       1.115      0.9360      0.7103      0.4267      0.2230      9.2888E-02   0.000    
  48    10.00       9.880       9.759       9.623       9.486       9.358       9.213       9.056       8.891       8.743    
        8.611       8.468       8.290       8.111       7.932       7.741       7.517       7.235       6.871       6.423    
        6.007       5.703       5.445       5.264       5.130       4.981       4.869       4.779       4.661       4.460    
        4.258       4.083       3.926       3.795       3.605       3.320       2.947       2.597       2.285       2.039    
        1.820       1.591       1.374       1.135      0.8676      0.5769      0.3646      0.2162      9.7697E-02   0.000    
  49    10.00       9.869       9.737       9.604       9.491       9.359       9.205       9.051       8.918       8.763    
        8.605       8.424       8.249       8.099       7.895       7.709       7.522       7.207       6.848       6.492    
        6.052       5.714       5.457       5.298       5.140       4.980       4.893       4.805       4.614       4.372    
        4.200       4.061       3.949       3.777       3.557       3.304       2.931       2.582       2.338       2.076    
        1.818       1.608       1.377       1.096      0.7680      0.5142      0.3646      0.2353      0.1207       0.000    
  50    10.00       9.874       9.742       9.606       9.483       9.353       9.216       9.064       8.924       8.786    
        8.591       8.402       8.242       8.040       7.833       7.691       7.514       7.269       6.913       6.561    
        6.113       5.687       5.463       5.302       5.137       5.006       4.901       4.783       4.557       4.328    
        4.186       4.072       3.940       3.762       3.559       3.317       2.941       2.583       2.346       2.109    
        1.865       1.600       1.340       1.039      0.7159      0.5262      0.3923      0.2659      0.1604       0.000    

 HEAD WILL BE SAVED ON UNIT   51 AT END OF TIME STEP  10, STRESS PERIOD    2

 DRAWDOWN WILL BE SAVED ON UNIT   52 AT END OF TIME STEP  10, STRESS PERIOD    2
1
  VOLUMETRIC BUDGET FOR ENTIRE MODEL AT END OF TIME STEP 10 IN STRESS PERIOD   2
  ------------------------------------------------------------------------------

     CUMULATIVE VOLUMES      L**3       RATES FOR THIS TIME STEP      L**3/T
     ------------------                 ------------------------

           IN:                                      IN:
           ---                                      ---
             STORAGE =        4999.9756               STORAGE =         499.9831
       CONSTANT HEAD =        4097.0859         CONSTANT HEAD =         372.4762
               WELLS =           0.0000                 WELLS =           0.0000

            TOTAL IN =        9097.0615              TOTAL IN =         872.4592

          OUT:                                     OUT:
          ----                                     ----
             STORAGE =       1.1024E-02               STORAGE =       1.6161E-04
       CONSTANT HEAD =        4097.0493         CONSTANT HEAD =         372.4590
               WELLS =        5000.0000                 WELLS =         500.0000

           TOTAL OUT =        9097.0605             TOTAL OUT =         872.4592

            IN - OUT =       9.7656E-04              IN - OUT =       6.1035E-05

 PERCENT DISCREPANCY =           0.00     PERCENT DISCREPANCY =           0.00






          TIME SUMMARY AT END OF TIME STEP  10 IN STRESS PERIOD    2
                    SECONDS     MINUTES      HOURS       DAYS        YEARS
                    -----------------------------------------------------------
   TIME STEP LENGTH  86400.      1440.0      24.000      1.0000     2.73785E-03
 STRESS PERIOD TIME 8.64000E+05  14400.      240.00      10.000     2.73785E-02
         TOTAL TIME 9.50400E+05  15840.      264.00      11.000     3.01164E-02
1
 
 SOLVING FOR HEAD 

 OUTPUT CONTROL FOR STRESS PERIOD    2   TIME STEP  11
    SAVE HEAD FOR ALL LAYERS
    SAVE DRAWDOWN FOR ALL LAYERS
    SAVE BUDGET
    PRINT HEAD FOR ALL LAYERS
    PRINT BUDGET
 UBDSV1 SAVING "         STORAGE" ON UNIT  53 AT TIME STEP 11, STRESS PERIOD   2
 UBDSV2 SAVING "   CONSTANT HEAD" ON UNIT  53 AT TIME STEP 11, STRESS PERIOD   2
 UBDSV1 SAVING "FLOW RIGHT FACE " ON UNIT  53 AT TIME STEP 11, STRESS PERIOD   2
 UBDSV1 SAVING "FLOW FRONT FACE " ON UNIT  53 AT TIME STEP 11, STRESS PERIOD   2
1
              HEAD IN LAYER   1 AT END OF TIME STEP  11 IN STRESS PERIOD    2
  ---------------------------------------------------------------------------

            1           2           3           4           5           6           7           8           9          10
           11          12          13          14          15          16          17          18          19          20
           21          22          23          24          25          26          27          28          29          30
           31          32          33          34          35          36          37          38          39          40
           41          42          43          44          45          46          47          48          49          50
 ........................................................................................................................
   1    10.00       9.953       9.906       9.851       9.808       9.771       9.722       9.655       9.581       9.513    
        9.362       9.174       9.035       8.881       8.716       8.549       8.395       8.217       7.979       7.743    
        7.582       7.397       7.154       6.907       6.687       6.495       6.222       5.973       5.797       5.612    
        5.451       5.345       5.228       5.093       4.964       4.804       4.632       4.400       4.135       3.846    
        3.475       3.099       2.607       2.072       1.670       1.381       1.165      0.9189      0.5394       0.000    
   2    10.00       9.948       9.898       9.852       9.815       9.779       9.725       9.656       9.588       9.496    
        9.350       9.181       9.025       8.884       8.732       8.561       8.377       8.195       7.973       7.735    
        7.559       7.408       7.149       6.883       6.688       6.471       6.208       5.970       5.769       5.595    
        5.458       5.359       5.259       5.114       4.964       4.805       4.607       4.391       4.134       3.805    
        3.458       3.137       2.620       2.088       1.732       1.474       1.225      0.9490      0.5728       0.000    
   3    10.00       9.940       9.898       9.866       9.831       9.794       9.735       9.653       9.571       9.471    
        9.338       9.189       9.039       8.897       8.716       8.502       8.324       8.166       7.963       7.754    
        7.573       7.359       7.106       6.872       6.660       6.418       6.169       5.935       5.728       5.596    
        5.481       5.384       5.283       5.124       4.966       4.797       4.601       4.360       4.074       3.821    
        3.512       3.074       2.570       2.187       1.883       1.582       1.276      0.9619      0.5428       0.000    
   4    10.00       9.940       9.903       9.874       9.850       9.811       9.744       9.649       9.552       9.453    
        9.326       9.192       9.042       8.865       8.644       8.446       8.318       8.141       7.945       7.782    
        7.537       7.268       7.046       6.839       6.634       6.348       6.074       5.889       5.743       5.626    
        5.520       5.418       5.309       5.125       4.929       4.778       4.572       4.322       4.075       3.851    
        3.500       3.017       2.635       2.311       1.984       1.642       1.273      0.9056      0.4639       0.000    
   5    10.00       9.945       9.911       9.882       9.860       9.820       9.749       9.642       9.533       9.434    
        9.327       9.190       8.999       8.792       8.605       8.448       8.291       8.126       7.942       7.715    
        7.435       7.213       7.028       6.818       6.560       6.266       6.039       5.904       5.783       5.666    
        5.545       5.420       5.296       5.122       4.922       4.738       4.553       4.353       4.126       3.829    
        3.430       3.060       2.732       2.404       2.046       1.648       1.184      0.7630      0.3950       0.000    
   6    10.00       9.954       9.921       9.893       9.863       9.819       9.743       9.628       9.533       9.428    
        9.308       9.139       8.931       8.759       8.588       8.411       8.251       8.105       7.901       7.646    
        7.398       7.186       6.999       6.744       6.465       6.241       6.054       5.926       5.797       5.677    
        5.568       5.431       5.275       5.095       4.902       4.742       4.578       4.395       4.154       3.833    
        3.481       3.121       2.784       2.453       2.064       1.582       1.082      0.7177      0.3694       0.000    
   7    10.00       9.960       9.931       9.902       9.870       9.817       9.716       9.605       9.507       9.378    
        9.256       9.078       8.890       8.714       8.540       8.363       8.208       8.075       7.845       7.574    
        7.353       7.142       6.935       6.687       6.449       6.242       6.078       5.933       5.798       5.697    
        5.586       5.437       5.270       5.082       4.912       4.770       4.618       4.426       4.176       3.880    
        3.528       3.157       2.806       2.440       2.055       1.549       1.036      0.6838      0.3236       0.000    
   8    10.00       9.967       9.941       9.909       9.872       9.787       9.665       9.560       9.439       9.316    
        9.182       9.002       8.843       8.667       8.475       8.305       8.171       8.015       7.803       7.542    
        7.289       7.095       6.925       6.674       6.432       6.248       6.064       5.912       5.813       5.718    
        5.587       5.439       5.294       5.123       4.937       4.785       4.668       4.518       4.267       3.922    
        3.534       3.202       2.873       2.445       2.016       1.450      0.9598      0.6700      0.3100       0.000    
   9    10.00       9.974       9.945       9.909       9.847       9.736       9.607       9.486       9.380       9.254    
        9.097       8.937       8.782       8.615       8.419       8.260       8.137       7.958       7.751       7.493    
        7.272       7.083       6.853       6.605       6.402       6.239       6.052       5.916       5.818       5.713    
        5.591       5.454       5.316       5.164       5.002       4.848       4.720       4.583       4.321       3.945    
        3.585       3.286       2.937       2.522       1.886       1.248      0.9145      0.5667      0.2162       0.000    
  10    10.00       9.974       9.944       9.894       9.799       9.668       9.526       9.432       9.332       9.185    
        9.048       8.892       8.738       8.561       8.383       8.241       8.080       7.896       7.683       7.476    
        7.262       6.987       6.755       6.559       6.383       6.238       6.067       5.921       5.826       5.728    
        5.595       5.448       5.322       5.178       5.032       4.922       4.789       4.628       4.326       3.950    
        3.664       3.398       2.996       2.371       1.635       1.173      0.8303      0.5068      0.2528       0.000    
  11    10.00       9.974       9.935       9.857       9.751       9.605       9.480       9.402       9.284       9.159    
        9.028       8.865       8.684       8.496       8.348       8.199       8.053       7.858       7.655       7.453    
        7.168       6.904       6.715       6.536       6.366       6.209       6.052       5.929       5.843       5.748    
        5.600       5.457       5.344       5.211       5.083       4.957       4.806       4.630       4.344       4.038    
        3.733       3.386       2.948       2.259       1.569       1.103      0.7784      0.5903      0.3260       0.000    
  12    10.00       9.973       9.917       9.818       9.680       9.536       9.438       9.360       9.258       9.145    
        9.004       8.833       8.652       8.486       8.335       8.173       8.006       7.814       7.613       7.354    
        7.078       6.876       6.692       6.512       6.329       6.171       6.053       5.950       5.843       5.732    
        5.601       5.482       5.379       5.266       5.146       5.018       4.849       4.629       4.360       4.080    
        3.752       3.373       2.773       2.000       1.415       1.087      0.8646      0.6266      0.3570       0.000    
  13    10.00       9.964       9.878       9.743       9.600       9.478       9.399       9.331       9.245       9.137    
        8.990       8.814       8.649       8.516       8.342       8.145       7.953       7.748       7.531       7.285    
        7.045       6.832       6.638       6.458       6.285       6.163       6.070       5.945       5.810       5.711    
        5.617       5.514       5.417       5.313       5.198       5.080       4.921       4.663       4.380       4.048    
        3.671       3.195       2.502       1.876       1.449       1.169      0.9092      0.6282      0.3103       0.000    
  14    10.00       9.934       9.812       9.664       9.533       9.438       9.385       9.324       9.242       9.126    
        8.965       8.816       8.679       8.541       8.351       8.121       7.917       7.689       7.449       7.201    
        6.974       6.766       6.573       6.397       6.253       6.168       6.062       5.918       5.797       5.711    
        5.636       5.538       5.449       5.347       5.238       5.137       4.949       4.682       4.379       3.965    
        3.522       2.963       2.429       1.970       1.544       1.214      0.9254      0.6289      0.2800       0.000    
  15    10.00       9.877       9.743       9.612       9.507       9.435       9.377       9.320       9.240       9.133    
        8.992       8.848       8.716       8.528       8.313       8.097       7.869       7.636       7.359       7.095    
        6.889       6.692       6.508       6.362       6.248       6.150       6.036       5.894       5.790       5.719    
        5.641       5.553       5.477       5.380       5.270       5.159       4.960       4.701       4.321       3.874    
        3.414       2.908       2.473       1.998       1.638       1.286      0.9368      0.6227      0.2553       0.000    
  16    10.00       9.858       9.713       9.594       9.504       9.438       9.380       9.327       9.251       9.142    
        9.012       8.875       8.720       8.492       8.263       8.088       7.868       7.560       7.250       7.005    
        6.789       6.619       6.474       6.342       6.219       6.124       6.003       5.879       5.786       5.708    
        5.643       5.572       5.483       5.395       5.295       5.166       4.980       4.666       4.250       3.839    
        3.442       2.950       2.458       2.038       1.698       1.328      0.9336      0.5578      0.2099       0.000    
  17    10.00       9.840       9.695       9.599       9.520       9.453       9.396       9.337       9.255       9.155    
        9.036       8.870       8.665       8.426       8.236       8.074       7.822       7.489       7.170       6.932    
        6.748       6.563       6.402       6.278       6.170       6.062       5.948       5.855       5.770       5.701    
        5.653       5.584       5.486       5.391       5.289       5.152       4.931       4.658       4.312       3.873    
        3.413       2.893       2.437       2.065       1.717       1.338      0.9533      0.5810      0.2455       0.000    
  18    10.00       9.831       9.695       9.613       9.542       9.478       9.421       9.351       9.271       9.164    
        9.024       8.834       8.609       8.409       8.226       8.000       7.716       7.420       7.140       6.905    
        6.685       6.449       6.303       6.199       6.102       5.985       5.900       5.820       5.757       5.708    
        5.658       5.588       5.484       5.373       5.265       5.114       4.896       4.665       4.361       3.949    
        3.348       2.793       2.420       2.067       1.770       1.371      0.9473      0.5693      0.2451       0.000    
  19    10.00       9.839       9.726       9.642       9.566       9.502       9.435       9.370       9.296       9.174    
        9.011       8.810       8.590       8.372       8.140       7.902       7.641       7.359       7.084       6.835    
        6.584       6.363       6.241       6.151       6.028       5.918       5.844       5.776       5.743       5.708    
        5.659       5.584       5.463       5.348       5.246       5.120       4.904       4.644       4.334       3.851    
        3.248       2.776       2.405       2.057       1.725       1.314      0.9093      0.5655      0.2664       0.000    
  20    10.00       9.848       9.752       9.678       9.605       9.529       9.450       9.380       9.306       9.183    
        9.008       8.800       8.548       8.271       8.011       7.820       7.562       7.260       7.016       6.768    
        6.539       6.350       6.201       6.073       5.923       5.840       5.781       5.734       5.716       5.695    
        5.661       5.568       5.441       5.347       5.242       5.102       4.853       4.589       4.236       3.699    
        3.180       2.802       2.372       1.976       1.616       1.212      0.9116      0.5613      0.2488       0.000    
  21    10.00       9.871       9.784       9.710       9.630       9.557       9.470       9.394       9.314       9.177    
        8.989       8.739       8.431       8.115       7.876       7.704       7.466       7.243       7.013       6.745    
        6.523       6.319       6.134       5.903       5.773       5.725       5.659       5.662       5.672       5.656    
        5.624       5.541       5.442       5.356       5.241       5.035       4.781       4.549       4.040       3.488    
        3.105       2.701       2.264       1.897       1.516       1.163      0.8252      0.4944      0.2483       0.000    
  22    10.00       9.899       9.808       9.727       9.649       9.581       9.483       9.384       9.293       9.152    
        8.926       8.618       8.278       7.985       7.782       7.602       7.420       7.259       7.012       6.751    
        6.521       6.238       5.917       5.660       5.558       5.462       5.462       5.535       5.563       5.568    
        5.556       5.504       5.441       5.362       5.234       4.994       4.722       4.308       3.745       3.397    
        2.988       2.555       2.165       1.813       1.489       1.070      0.7159      0.4740      0.2664       0.000    
  23    10.00       9.900       9.813       9.739       9.658       9.567       9.457       9.369       9.288       9.112    
        8.838       8.511       8.203       7.950       7.742       7.591       7.420       7.213       6.977       6.769    
        6.457       6.040       5.690       5.422       5.037       5.037       5.230       5.343       5.416       5.472    
        5.481       5.464       5.438       5.358       5.203       4.936       4.541       4.070       3.618       3.199    
        2.815       2.459       2.086       1.807       1.397      0.9724      0.6963      0.4558      0.2366       0.000    
  24    10.00       9.922       9.823       9.727       9.633       9.529       9.430       9.355       9.265       9.059    
        8.748       8.440       8.187       7.968       7.772       7.576       7.368       7.179       6.991       6.749    
        6.376       5.961       5.543       4.756       3.894       4.400       4.878       5.148       5.286       5.385    
        5.420       5.429       5.414       5.315       5.146       4.817       4.378       3.981       3.481       3.038    
        2.739       2.398       2.044       1.689       1.250      0.9021      0.6698      0.4269      0.1883       0.000    
  25    10.00       9.915       9.800       9.683       9.573       9.480       9.404       9.329       9.218       9.004    
        8.677       8.392       8.200       7.997       7.772       7.571       7.377       7.214       7.043       6.739    
        6.310       5.895       5.224       3.927       1.165       3.831       4.593       5.021       5.230       5.335    
        5.384       5.401       5.365       5.248       5.072       4.727       4.261       3.806       3.400       3.017    
        2.674       2.304       1.903       1.528       1.112      0.8285      0.6672      0.4151      0.1538       0.000    
  26    10.00       9.893       9.746       9.615       9.527       9.451       9.377       9.284       9.153       8.887    
        8.585       8.388       8.204       8.002       7.792       7.600       7.420       7.262       7.051       6.730    
        6.352       5.898       5.313       4.619       3.971       4.320       4.768       5.063       5.229       5.322    
        5.364       5.366       5.306       5.183       4.982       4.607       4.111       3.742       3.408       2.992    
        2.631       2.212       1.752       1.351       1.011      0.8111      0.6313      0.3701      0.1575       0.000    
  27    10.00       9.870       9.714       9.591       9.516       9.418       9.320       9.202       9.027       8.777    
        8.564       8.390       8.202       8.005       7.798       7.645       7.523       7.314       7.048       6.719    
        6.393       6.071       5.613       5.170       4.814       4.875       5.040       5.176       5.271       5.327    
        5.354       5.332       5.265       5.120       4.883       4.483       4.094       3.765       3.376       2.984    
        2.609       2.104       1.578       1.202      0.9653      0.7981      0.6005      0.3914      0.1887       0.000    
  28    10.00       9.853       9.738       9.600       9.473       9.353       9.245       9.107       8.933       8.740    
        8.565       8.406       8.219       7.998       7.814       7.693       7.555       7.318       7.004       6.707    
        6.484       6.250       5.904       5.572       5.354       5.279       5.268       5.297       5.340       5.359    
        5.347       5.313       5.226       5.054       4.773       4.426       4.121       3.740       3.338       2.945    
        2.490       2.016       1.494       1.120      0.9548      0.7951      0.6192      0.4088      0.1895       0.000    
  29    10.00       9.857       9.715       9.569       9.417       9.301       9.179       9.026       8.880       8.727    
        8.570       8.412       8.226       8.037       7.881       7.736       7.550       7.280       6.993       6.764    
        6.582       6.382       6.106       5.816       5.635       5.531       5.457       5.424       5.412       5.382    
        5.343       5.280       5.176       4.981       4.686       4.403       4.129       3.776       3.329       2.833    
        2.419       1.915       1.396       1.104      0.9579      0.8008      0.6146      0.3994      0.1986       0.000    
  30    10.00       9.837       9.692       9.517       9.363       9.257       9.126       8.992       8.878       8.739    
        8.576       8.403       8.231       8.078       7.937       7.770       7.528       7.275       7.050       6.842    
        6.690       6.498       6.249       5.996       5.782       5.673       5.587       5.517       5.458       5.396    
        5.326       5.251       5.127       4.900       4.651       4.434       4.160       3.706       3.165       2.670    
        2.257       1.799       1.405       1.134      0.9799      0.8028      0.6038      0.4187      0.2053       0.000    
  31    10.00       9.815       9.648       9.481       9.342       9.231       9.108       8.988       8.874       8.735    
        8.571       8.393       8.243       8.113       7.974       7.780       7.539       7.326       7.155       6.977    
        6.818       6.602       6.351       6.138       5.916       5.743       5.642       5.552       5.480       5.395    
        5.309       5.214       5.066       4.864       4.637       4.406       3.989       3.502       3.061       2.583    
        2.195       1.740       1.358       1.163      0.9983      0.8315      0.6244      0.4193      0.1987       0.000    
  32    10.00       9.800       9.621       9.478       9.361       9.250       9.119       8.981       8.841       8.710    
        8.545       8.390       8.253       8.107       7.972       7.803       7.617       7.460       7.284       7.099    
        6.933       6.720       6.473       6.255       6.015       5.786       5.669       5.572       5.475       5.363    
        5.263       5.184       5.003       4.781       4.587       4.281       3.788       3.343       2.963       2.530    
        2.080       1.659       1.380       1.230       1.050      0.8389      0.6198      0.3984      0.1987       0.000    
  33    10.00       9.794       9.640       9.525       9.407       9.277       9.118       8.963       8.811       8.659    
        8.521       8.389       8.253       8.111       7.961       7.827       7.689       7.552       7.402       7.214    
        7.010       6.809       6.609       6.353       6.061       5.812       5.663       5.561       5.443       5.319    
        5.224       5.108       4.924       4.732       4.467       4.066       3.582       3.217       2.858       2.360    
        1.956       1.683       1.461       1.283       1.077      0.8556      0.5871      0.3506      0.1579       0.000    
  34    10.00       9.812       9.686       9.577       9.445       9.284       9.115       8.932       8.763       8.635    
        8.512       8.390       8.266       8.117       7.982       7.851       7.729       7.618       7.467       7.264    
        7.069       6.892       6.688       6.412       6.091       5.814       5.641       5.519       5.403       5.271    
        5.159       5.033       4.870       4.638       4.326       3.847       3.391       3.077       2.659       2.227    
        1.981       1.802       1.588       1.358       1.088      0.7759      0.4744      0.2807      0.1163       0.000    
  35    10.00       9.843       9.729       9.618       9.476       9.293       9.099       8.894       8.734       8.624    
        8.541       8.417       8.275       8.113       7.967       7.872       7.782       7.660       7.497       7.304    
        7.119       6.940       6.744       6.415       6.047       5.784       5.603       5.481       5.354       5.208    
        5.104       4.972       4.787       4.487       4.013       3.537       3.246       2.930       2.511       2.256    
        2.086       1.882       1.667       1.443       1.101      0.6597      0.3642      0.2393      0.1214       0.000    
  36    10.00       9.861       9.762       9.655       9.503       9.284       9.046       8.854       8.739       8.655    
        8.540       8.393       8.260       8.115       7.986       7.891       7.799       7.685       7.554       7.369    
        7.174       6.985       6.727       6.357       6.006       5.745       5.579       5.437       5.273       5.148    
        5.023       4.864       4.572       4.137       3.722       3.412       3.149       2.822       2.497       2.330    
        2.158       1.975       1.758       1.469       1.004      0.5551      0.3419      0.2187      0.1124       0.000    
  37    10.00       9.875       9.798       9.682       9.478       9.238       9.027       8.878       8.783       8.679    
        8.526       8.369       8.252       8.125       8.002       7.907       7.818       7.711       7.568       7.397    
        7.237       7.019       6.681       6.329       5.984       5.691       5.484       5.306       5.155       5.037    
        4.898       4.659       4.233       3.860       3.589       3.329       3.065       2.813       2.585       2.401    
        2.235       2.030       1.783       1.403      0.9189      0.5347      0.3200      0.2034      0.1020       0.000    
  38    10.00       9.893       9.800       9.672       9.461       9.212       9.033       8.922       8.821       8.696    
        8.532       8.367       8.251       8.131       8.006       7.909       7.828       7.731       7.582       7.435    
        7.280       7.003       6.610       6.226       5.864       5.571       5.340       5.146       5.009       4.895    
        4.724       4.334       3.981       3.766       3.508       3.258       3.073       2.867       2.660       2.483    
        2.289       2.010       1.698       1.286      0.8062      0.5118      0.3599      0.2242      0.1006       0.000    
  39    10.00       9.892       9.785       9.651       9.446       9.220       9.059       8.958       8.832       8.691    
        8.557       8.390       8.257       8.141       8.018       7.912       7.818       7.717       7.596       7.461    
        7.258       6.947       6.522       6.086       5.717       5.437       5.171       4.968       4.881       4.761    
        4.469       4.102       3.907       3.667       3.433       3.263       3.114       2.928       2.729       2.565    
        2.283       1.889       1.524       1.081      0.7184      0.5542      0.4124      0.2685      0.1381       0.000    
  40    10.00       9.882       9.788       9.651       9.462       9.272       9.113       8.978       8.827       8.698    
        8.596       8.429       8.259       8.139       8.025       7.900       7.794       7.715       7.605       7.422    
        7.177       6.811       6.379       5.967       5.599       5.301       4.988       4.835       4.754       4.593    
        4.334       4.086       3.826       3.588       3.430       3.288       3.148       2.975       2.794       2.579    
        2.199       1.771       1.376       1.018      0.7704      0.6013      0.4601      0.3247      0.1594       0.000    
  41    10.00       9.898       9.822       9.688       9.493       9.293       9.140       9.017       8.869       8.714    
        8.590       8.432       8.271       8.158       8.022       7.871       7.784       7.693       7.538       7.328    
        7.071       6.710       6.276       5.877       5.505       5.101       4.820       4.745       4.650       4.535    
        4.341       4.043       3.788       3.606       3.453       3.329       3.177       3.013       2.826       2.491    
        2.048       1.633       1.291       1.028      0.8133      0.6564      0.5055      0.3571      0.1880       0.000    
  42    10.00       9.923       9.839       9.709       9.539       9.347       9.172       9.046       8.909       8.733    
        8.573       8.421       8.281       8.171       8.023       7.866       7.755       7.627       7.455       7.214    
        6.915       6.520       6.141       5.739       5.251       4.903       4.770       4.708       4.629       4.511    
        4.283       4.025       3.793       3.612       3.492       3.360       3.227       3.051       2.752       2.309    
        1.923       1.615       1.319       1.022      0.8233      0.6900      0.5453      0.3716      0.2062       0.000    
  43    10.00       9.939       9.848       9.713       9.544       9.383       9.227       9.084       8.910       8.726    
        8.577       8.422       8.282       8.179       8.036       7.853       7.701       7.554       7.321       7.017    
        6.729       6.353       6.006       5.542       5.085       4.864       4.761       4.690       4.617       4.491    
        4.277       4.045       3.824       3.651       3.537       3.408       3.232       2.981       2.545       2.155    
        1.916       1.644       1.332       1.025      0.8146      0.6914      0.5800      0.4017      0.1882       0.000    
  44    10.00       9.931       9.853       9.712       9.557       9.441       9.281       9.082       8.885       8.731    
        8.580       8.422       8.298       8.187       8.016       7.814       7.638       7.462       7.188       6.891    
        6.552       6.181       5.813       5.353       5.015       4.853       4.764       4.703       4.623       4.465    
        4.250       4.066       3.873       3.714       3.597       3.416       3.184       2.825       2.386       2.131    
        1.912       1.628       1.318       1.038      0.8240      0.6930      0.5802      0.3934      0.1733       0.000    
  45    10.00       9.917       9.822       9.708       9.595       9.443       9.272       9.080       8.885       8.728    
        8.570       8.426       8.316       8.184       7.995       7.776       7.578       7.381       7.086       6.740    
        6.354       5.966       5.573       5.239       5.008       4.871       4.785       4.719       4.616       4.487    
        4.303       4.094       3.922       3.758       3.588       3.398       3.145       2.766       2.387       2.089    
        1.841       1.575       1.286       1.036      0.8494      0.7409      0.5725      0.3408      0.1553       0.000    
  46    10.00       9.899       9.801       9.709       9.579       9.404       9.237       9.080       8.886       8.717    
        8.576       8.442       8.330       8.170       7.967       7.770       7.561       7.302       6.987       6.613    
        6.163       5.781       5.470       5.218       5.043       4.921       4.814       4.724       4.642       4.500    
        4.303       4.122       3.953       3.762       3.594       3.416       3.132       2.695       2.300       2.035    
        1.803       1.548       1.278       1.058      0.9142      0.7746      0.5189      0.2551      0.1109       0.000    
  47    10.00       9.892       9.792       9.665       9.513       9.369       9.226       9.055       8.877       8.727    
        8.597       8.477       8.315       8.141       7.959       7.767       7.534       7.234       6.941       6.488    
        6.003       5.707       5.441       5.244       5.081       4.961       4.851       4.743       4.648       4.500    
        4.293       4.115       3.943       3.764       3.620       3.404       3.010       2.620       2.291       2.010    
        1.807       1.567       1.326       1.115      0.9360      0.7103      0.4267      0.2230      9.2888E-02   0.000    
  48    10.00       9.880       9.759       9.623       9.486       9.358       9.213       9.056       8.891       8.743    
        8.611       8.468       8.290       8.111       7.932       7.741       7.517       7.235       6.871       6.423    
        6.007       5.703       5.445       5.264       5.130       4.981       4.869       4.779       4.661       4.459    
        4.258       4.083       3.926       3.795       3.605       3.320       2.947       2.597       2.285       2.039    
        1.820       1.591       1.374       1.135      0.8676      0.5769      0.3646      0.2162      9.7697E-02   0.000    
  49    10.00       9.869       9.737       9.604       9.491       9.359       9.205       9.051       8.918       8.763    
        8.605       8.424       8.249       8.099       7.895       7.709       7.522       7.207       6.848       6.492    
        6.052       5.714       5.457       5.298       5.140       4.980       4.893       4.805       4.614       4.372    
        4.200       4.061       3.949       3.777       3.557       3.304       2.931       2.582       2.338       2.076    
        1.818       1.608       1.377       1.096      0.7680      0.5142      0.3646      0.2353      0.1207       0.000    
  50    10.00       9.874       9.742       9.606       9.483       9.353       9.216       9.064       8.924       8.786    
        8.591       8.402       8.242       8.040       7.833       7.691       7.514       7.269       6.913       6.561    
        6.113       5.687       5.463       5.302       5.137       5.006       4.901       4.783       4.557       4.328    
        4.186       4.072       3.940       3.762       3.559       3.317       2.941       2.583       2.346       2.109    
        1.865       1.600       1.340       1.039      0.7159      0.5262      0.3923      0.2659      0.1604       0.000    

 HEAD WILL BE SAVED ON UNIT   51 AT END OF TIME STEP  11, STRESS PERIOD    2

 DRAWDOWN WILL BE SAVED ON UNIT   52 AT END OF TIME STEP  11, STRESS PERIOD    2
1
  VOLUMETRIC BUDGET FOR ENTIRE MODEL AT END OF TIME STEP 11 IN STRESS PERIOD   2
  ------------------------------------------------------------------------------

     CUMULATIVE VOLUMES      L**3       RATES FOR THIS TIME STEP      L**3/T
     ------------------                 ------------------------

           IN:                                      IN:
           ---                                      ---
             STORAGE =        5499.9468               STORAGE =         499.9713
       CONSTANT HEAD =        4469.5737         CONSTANT HEAD =         372.4880
               WELLS =           0.0000                 WELLS =           0.0000

            TOTAL IN =        9969.5205              TOTAL IN =         872.4593

          OUT:                                     OUT:
          ----                                     ----
             STORAGE =       1.1091E-02               STORAGE =       6.6479E-05
       CONSTANT HEAD =        4469.5083         CONSTANT HEAD =         372.4590
               WELLS =        5500.0000                 WELLS =         500.0000

           TOTAL OUT =        9969.5195             TOTAL OUT =         872.4590

            IN - OUT =       9.7656E-04              IN - OUT =       2.4414E-04

 PERCENT DISCREPANCY =           0.00     PERCENT DISCREPANCY =           0.00






          TIME SUMMARY AT END OF TIME STEP  11 IN STRESS PERIOD    2
                    SECONDS     MINUTES      HOURS       DAYS        YEARS
                    -----------------------------------------------------------
   TIME STEP LENGTH  86400.      1440.0      24.000      1.0000     2.73785E-03
 STRESS PERIOD TIME 9.50400E+05  15840.      264.00      11.000     3.01164E-02
         TOTAL TIME 1.03680E+06  17280.      288.00      12.000     3.28542E-02
1
 
 SOLVING FOR HEAD 

 OUTPUT CONTROL FOR STRESS PERIOD    2   TIME STEP  12
    SAVE HEAD FOR ALL LAYERS
    SAVE DRAWDOWN FOR ALL LAYERS
    SAVE BUDGET
    PRINT HEAD FOR ALL LAYERS
    PRINT BUDGET
 UBDSV1 SAVING "         STORAGE" ON UNIT  53 AT TIME STEP 12, STRESS PERIOD   2
 UBDSV2 SAVING "   CONSTANT HEAD" ON UNIT  53 AT TIME STEP 12, STRESS PERIOD   2
 UBDSV1 SAVING "FLOW RIGHT FACE " ON UNIT  53 AT TIME STEP 12, STRESS PERIOD   2
 UBDSV1 SAVING "FLOW FRONT FACE " ON UNIT  53 AT TIME STEP 12, STRESS PERIOD   2
1
              HEAD IN LAYER   1 AT END OF TIME STEP  12 IN STRESS PERIOD    2
  ---------------------------------------------------------------------------

            1           2           3           4           5           6           7           8           9          10
           11          12          13          14          15          16          17          18          19          20
           21          22          23          24          25          26          27          28          29          30
           31          32          33          34          35          36          37          38          39          40
           41          42          43          44          45          46          47          48          49          50
 ........................................................................................................................
   1    10.00       9.953       9.906       9.851       9.808       9.771       9.722       9.655       9.581       9.513    
        9.362       9.174       9.035       8.881       8.716       8.549       8.395       8.217       7.979       7.743    
        7.582       7.397       7.154       6.907       6.687       6.495       6.222       5.973       5.797       5.612    
        5.451       5.345       5.227       5.093       4.964       4.804       4.632       4.400       4.135       3.846    
        3.475       3.099       2.607       2.072       1.670       1.381       1.165      0.9189      0.5394       0.000    
   2    10.00       9.948       9.898       9.852       9.815       9.779       9.725       9.656       9.588       9.496    
        9.350       9.181       9.025       8.884       8.732       8.561       8.377       8.195       7.973       7.735    
        7.559       7.408       7.149       6.883       6.688       6.471       6.208       5.970       5.769       5.595    
        5.458       5.359       5.259       5.114       4.964       4.805       4.607       4.391       4.134       3.805    
        3.458       3.137       2.620       2.088       1.732       1.474       1.225      0.9490      0.5728       0.000    
   3    10.00       9.940       9.898       9.866       9.831       9.794       9.735       9.653       9.571       9.471    
        9.338       9.189       9.039       8.897       8.716       8.502       8.324       8.166       7.963       7.754    
        7.573       7.359       7.106       6.872       6.660       6.418       6.169       5.935       5.728       5.596    
        5.481       5.384       5.283       5.124       4.965       4.797       4.601       4.360       4.074       3.821    
        3.512       3.074       2.570       2.187       1.883       1.582       1.276      0.9619      0.5428       0.000    
   4    10.00       9.940       9.903       9.874       9.850       9.811       9.744       9.649       9.552       9.453    
        9.326       9.192       9.042       8.865       8.644       8.446       8.318       8.141       7.944       7.782    
        7.537       7.268       7.046       6.838       6.634       6.348       6.074       5.888       5.742       5.626    
        5.520       5.418       5.309       5.125       4.929       4.778       4.572       4.322       4.075       3.851    
        3.500       3.017       2.635       2.311       1.984       1.642       1.273      0.9056      0.4639       0.000    
   5    10.00       9.945       9.911       9.882       9.860       9.820       9.749       9.642       9.533       9.434    
        9.327       9.190       8.999       8.792       8.605       8.448       8.290       8.126       7.942       7.715    
        7.435       7.213       7.028       6.818       6.560       6.265       6.038       5.904       5.783       5.665    
        5.544       5.420       5.296       5.121       4.922       4.738       4.553       4.353       4.126       3.829    
        3.430       3.060       2.732       2.404       2.046       1.648       1.184      0.7630      0.3950       0.000    
   6    10.00       9.954       9.921       9.893       9.863       9.819       9.743       9.628       9.533       9.428    
        9.308       9.139       8.931       8.759       8.588       8.411       8.251       8.105       7.901       7.646    
        7.398       7.186       6.999       6.743       6.465       6.240       6.053       5.925       5.796       5.676    
        5.568       5.430       5.275       5.094       4.901       4.742       4.577       4.395       4.154       3.833    
        3.480       3.121       2.784       2.453       2.064       1.582       1.082      0.7177      0.3694       0.000    
   7    10.00       9.960       9.931       9.902       9.870       9.817       9.716       9.605       9.507       9.378    
        9.256       9.078       8.890       8.714       8.540       8.363       8.208       8.075       7.844       7.574    
        7.353       7.142       6.934       6.686       6.449       6.242       6.077       5.932       5.797       5.696    
        5.585       5.436       5.269       5.082       4.912       4.769       4.618       4.426       4.176       3.880    
        3.528       3.157       2.806       2.440       2.055       1.549       1.036      0.6838      0.3236       0.000    
   8    10.00       9.967       9.941       9.909       9.872       9.787       9.665       9.560       9.439       9.316    
        9.182       9.002       8.843       8.667       8.474       8.305       8.171       8.015       7.802       7.541    
        7.289       7.094       6.924       6.673       6.431       6.246       6.062       5.910       5.811       5.717    
        5.586       5.437       5.293       5.122       4.937       4.785       4.667       4.517       4.266       3.922    
        3.534       3.202       2.873       2.445       2.016       1.450      0.9598      0.6700      0.3100       0.000    
   9    10.00       9.974       9.945       9.909       9.847       9.736       9.607       9.486       9.380       9.253    
        9.097       8.937       8.782       8.615       8.419       8.260       8.137       7.957       7.750       7.492    
        7.271       7.081       6.851       6.603       6.400       6.237       6.049       5.913       5.815       5.710    
        5.589       5.452       5.314       5.163       5.001       4.847       4.719       4.582       4.320       3.945    
        3.585       3.286       2.937       2.522       1.886       1.248      0.9145      0.5667      0.2162       0.000    
  10    10.00       9.974       9.944       9.894       9.799       9.668       9.526       9.432       9.332       9.185    
        9.048       8.892       8.738       8.561       8.383       8.241       8.079       7.895       7.682       7.474    
        7.261       6.985       6.752       6.555       6.380       6.235       6.063       5.917       5.822       5.725    
        5.592       5.444       5.319       5.176       5.030       4.920       4.788       4.627       4.325       3.950    
        3.664       3.398       2.996       2.371       1.635       1.173      0.8303      0.5068      0.2528       0.000    
  11    10.00       9.974       9.935       9.857       9.751       9.605       9.480       9.402       9.284       9.158    
        9.028       8.865       8.683       8.496       8.348       8.199       8.052       7.857       7.653       7.451    
        7.165       6.901       6.710       6.531       6.361       6.203       6.046       5.924       5.837       5.743    
        5.595       5.453       5.341       5.208       5.080       4.955       4.805       4.629       4.343       4.038    
        3.733       3.386       2.947       2.259       1.569       1.103      0.7784      0.5903      0.3260       0.000    
  12    10.00       9.973       9.917       9.818       9.680       9.536       9.438       9.360       9.258       9.145    
        9.004       8.832       8.652       8.485       8.334       8.172       8.005       7.813       7.611       7.351    
        7.074       6.871       6.686       6.505       6.322       6.163       6.045       5.943       5.837       5.726    
        5.595       5.476       5.374       5.262       5.143       5.015       4.847       4.627       4.359       4.080    
        3.752       3.373       2.773       2.000       1.415       1.087      0.8646      0.6266      0.3570       0.000    
  13    10.00       9.964       9.878       9.743       9.600       9.478       9.399       9.331       9.245       9.137    
        8.990       8.814       8.648       8.515       8.341       8.144       7.951       7.746       7.528       7.280    
        7.040       6.825       6.630       6.448       6.275       6.153       6.061       5.936       5.802       5.703    
        5.609       5.507       5.411       5.308       5.194       5.077       4.918       4.661       4.379       4.048    
        3.671       3.194       2.502       1.876       1.449       1.169      0.9092      0.6282      0.3103       0.000    
  14    10.00       9.934       9.812       9.664       9.533       9.438       9.385       9.324       9.242       9.126    
        8.965       8.816       8.679       8.541       8.350       8.120       7.915       7.686       7.445       7.195    
        6.966       6.756       6.562       6.385       6.241       6.155       6.050       5.906       5.785       5.701    
        5.626       5.530       5.441       5.341       5.233       5.133       4.946       4.680       4.378       3.964    
        3.521       2.963       2.429       1.970       1.544       1.214      0.9254      0.6289      0.2800       0.000    
  15    10.00       9.877       9.743       9.612       9.507       9.435       9.377       9.320       9.240       9.133    
        8.992       8.847       8.716       8.527       8.312       8.096       7.866       7.632       7.353       7.087    
        6.878       6.679       6.493       6.347       6.233       6.135       6.022       5.880       5.777       5.707    
        5.629       5.543       5.468       5.373       5.265       5.155       4.957       4.699       4.320       3.873    
        3.414       2.908       2.473       1.998       1.638       1.286      0.9368      0.6227      0.2553       0.000    
  16    10.00       9.858       9.713       9.593       9.504       9.438       9.380       9.327       9.251       9.141    
        9.011       8.875       8.719       8.491       8.262       8.085       7.865       7.555       7.242       6.993    
        6.774       6.602       6.455       6.324       6.200       6.106       5.985       5.862       5.771       5.693    
        5.629       5.560       5.474       5.387       5.288       5.161       4.976       4.664       4.249       3.838    
        3.441       2.950       2.458       2.038       1.698       1.328      0.9336      0.5578      0.2099       0.000    
  17    10.00       9.840       9.695       9.599       9.520       9.453       9.396       9.337       9.255       9.155    
        9.036       8.870       8.664       8.424       8.234       8.070       7.816       7.480       7.158       6.916    
        6.730       6.542       6.379       6.254       6.146       6.038       5.925       5.834       5.750       5.684    
        5.638       5.571       5.475       5.382       5.282       5.146       4.928       4.656       4.311       3.872    
        3.413       2.893       2.437       2.065       1.717       1.338      0.9533      0.5810      0.2455       0.000    
  18    10.00       9.831       9.695       9.613       9.542       9.478       9.421       9.350       9.270       9.163    
        9.024       8.833       8.608       8.407       8.222       7.995       7.708       7.408       7.124       6.886    
        6.663       6.422       6.274       6.169       6.072       5.956       5.872       5.793       5.732       5.687    
        5.639       5.572       5.471       5.363       5.257       5.108       4.892       4.663       4.359       3.948    
        3.348       2.793       2.420       2.067       1.770       1.371      0.9473      0.5693      0.2451       0.000    
  19    10.00       9.839       9.726       9.642       9.566       9.501       9.435       9.370       9.296       9.174    
        9.011       8.809       8.588       8.369       8.135       7.895       7.631       7.344       7.064       6.811    
        6.555       6.331       6.208       6.118       5.995       5.885       5.813       5.746       5.714       5.682    
        5.637       5.566       5.450       5.337       5.238       5.114       4.899       4.642       4.333       3.851    
        3.248       2.776       2.405       2.057       1.725       1.314      0.9093      0.5655      0.2664       0.000    
  20    10.00       9.848       9.752       9.678       9.605       9.529       9.450       9.380       9.306       9.183    
        9.007       8.799       8.545       8.267       8.004       7.811       7.549       7.242       6.993       6.739    
        6.507       6.316       6.166       6.036       5.886       5.804       5.746       5.701       5.685       5.665    
        5.635       5.547       5.426       5.335       5.233       5.095       4.849       4.587       4.235       3.699    
        3.180       2.802       2.372       1.976       1.616       1.212      0.9116      0.5613      0.2488       0.000    
  21    10.00       9.871       9.784       9.710       9.629       9.557       9.470       9.394       9.314       9.176    
        8.988       8.738       8.428       8.110       7.867       7.692       7.449       7.223       6.987       6.714    
        6.489       6.282       6.095       5.862       5.731       5.685       5.619       5.625       5.637       5.624    
        5.594       5.517       5.424       5.342       5.231       5.029       4.778       4.547       4.039       3.488    
        3.105       2.701       2.264       1.897       1.516       1.163      0.8252      0.4944      0.2483       0.000    
  22    10.00       9.899       9.808       9.727       9.649       9.581       9.483       9.384       9.292       9.152    
        8.925       8.616       8.274       7.978       7.771       7.588       7.402       7.238       6.985       6.719    
        6.485       6.197       5.872       5.613       5.512       5.416       5.417       5.494       5.523       5.531    
        5.522       5.476       5.418       5.345       5.222       4.988       4.719       4.307       3.745       3.397    
        2.988       2.555       2.165       1.813       1.489       1.070      0.7159      0.4740      0.2664       0.000    
  23    10.00       9.900       9.813       9.739       9.658       9.567       9.457       9.368       9.288       9.112    
        8.837       8.508       8.198       7.942       7.731       7.577       7.402       7.189       6.948       6.736    
        6.417       5.993       5.640       5.371       4.984       4.985       5.180       5.295       5.370       5.430    
        5.443       5.432       5.411       5.339       5.191       4.930       4.539       4.069       3.617       3.199    
        2.815       2.459       2.086       1.807       1.397      0.9724      0.6963      0.4558      0.2366       0.000    
  24    10.00       9.922       9.823       9.727       9.633       9.529       9.430       9.355       9.265       9.058    
        8.746       8.437       8.182       7.960       7.761       7.561       7.348       7.154       6.961       6.713    
        6.333       5.911       5.490       4.698       3.835       4.342       4.822       5.096       5.237       5.341    
        5.380       5.394       5.384       5.294       5.133       4.812       4.376       3.981       3.481       3.038    
        2.739       2.398       2.044       1.689       1.250      0.9021      0.6698      0.4269      0.1883       0.000    
  25    10.00       9.915       9.800       9.683       9.573       9.480       9.404       9.329       9.218       9.003    
        8.676       8.389       8.195       7.990       7.761       7.555       7.356       7.189       7.014       6.702    
        6.264       5.844       5.167       3.865       1.099       3.770       4.534       4.967       5.180       5.290    
        5.343       5.364       5.335       5.228       5.059       4.722       4.259       3.805       3.400       3.017    
        2.674       2.304       1.903       1.528       1.112      0.8285      0.6672      0.4151      0.1538       0.000    
  26    10.00       9.893       9.746       9.615       9.527       9.451       9.377       9.284       9.153       8.886    
        8.584       8.385       8.200       7.995       7.782       7.585       7.400       7.238       7.022       6.692    
        6.307       5.846       5.256       4.559       3.909       4.259       4.710       5.009       5.179       5.276    
        5.323       5.330       5.279       5.164       4.969       4.601       4.109       3.741       3.407       2.992    
        2.631       2.212       1.752       1.351       1.011      0.8111      0.6313      0.3701      0.1575       0.000    
  27    10.00       9.870       9.713       9.591       9.516       9.418       9.320       9.202       9.027       8.776    
        8.563       8.387       8.198       7.998       7.788       7.631       7.507       7.291       7.019       6.681    
        6.349       6.022       5.559       5.113       4.755       4.816       4.984       5.123       5.222       5.282    
        5.316       5.300       5.239       5.102       4.871       4.477       4.092       3.764       3.376       2.984    
        2.609       2.104       1.578       1.202      0.9653      0.7981      0.6005      0.3914      0.1887       0.000    
  28    10.00       9.853       9.738       9.600       9.473       9.353       9.245       9.107       8.933       8.739    
        8.563       8.404       8.215       7.990       7.804       7.680       7.540       7.297       6.975       6.671    
        6.443       6.205       5.855       5.519       5.299       5.225       5.215       5.246       5.294       5.319    
        5.313       5.283       5.203       5.038       4.764       4.421       4.119       3.739       3.337       2.944    
        2.490       2.016       1.494       1.120      0.9548      0.7951      0.6192      0.4088      0.1895       0.000    
  29    10.00       9.857       9.715       9.568       9.417       9.300       9.178       9.026       8.879       8.726    
        8.568       8.409       8.222       8.031       7.872       7.725       7.535       7.259       6.964       6.731    
        6.544       6.341       6.060       5.767       5.586       5.481       5.409       5.380       5.373       5.348    
        5.313       5.255       5.156       4.967       4.679       4.398       4.126       3.774       3.328       2.833    
        2.419       1.915       1.396       1.104      0.9579      0.8008      0.6146      0.3994      0.1986       0.000    
  30    10.00       9.837       9.692       9.517       9.363       9.257       9.126       8.991       8.878       8.738    
        8.575       8.400       8.227       8.073       7.930       7.760       7.513       7.254       7.024       6.811    
        6.655       6.460       6.207       5.952       5.736       5.629       5.546       5.480       5.425       5.366    
        5.300       5.229       5.109       4.888       4.644       4.429       4.157       3.705       3.164       2.670    
        2.257       1.799       1.405       1.134      0.9799      0.8028      0.6038      0.4187      0.2053       0.000    
  31    10.00       9.815       9.648       9.481       9.342       9.231       9.107       8.987       8.873       8.734    
        8.570       8.390       8.240       8.109       7.968       7.771       7.526       7.308       7.132       6.950    
        6.788       6.569       6.315       6.100       5.877       5.706       5.609       5.521       5.451       5.370    
        5.287       5.196       5.052       4.854       4.631       4.401       3.987       3.502       3.060       2.583    
        2.195       1.740       1.358       1.163      0.9983      0.8315      0.6244      0.4193      0.1987       0.000    
  32    10.00       9.800       9.621       9.478       9.361       9.249       9.119       8.981       8.841       8.709    
        8.543       8.387       8.250       8.103       7.967       7.795       7.606       7.446       7.266       7.077    
        6.909       6.694       6.444       6.224       5.984       5.755       5.641       5.546       5.451       5.342    
        5.245       5.168       4.991       4.773       4.581       4.278       3.787       3.343       2.962       2.530    
        2.080       1.659       1.380       1.230       1.050      0.8389      0.6198      0.3984      0.1987       0.000    
  33    10.00       9.794       9.640       9.525       9.407       9.276       9.117       8.963       8.810       8.658    
        8.520       8.387       8.250       8.107       7.956       7.821       7.681       7.541       7.389       7.198    
        6.993       6.790       6.587       6.329       6.037       5.787       5.640       5.539       5.424       5.302    
        5.209       5.095       4.915       4.725       4.462       4.064       3.581       3.217       2.858       2.360    
        1.956       1.683       1.461       1.283       1.077      0.8556      0.5871      0.3506      0.1579       0.000    
  34    10.00       9.812       9.686       9.577       9.445       9.284       9.115       8.932       8.763       8.634    
        8.511       8.389       8.264       8.114       7.978       7.845       7.722       7.609       7.457       7.252    
        7.057       6.878       6.672       6.394       6.073       5.796       5.623       5.503       5.388       5.257    
        5.147       5.023       4.863       4.633       4.323       3.846       3.391       3.077       2.659       2.227    
        1.981       1.802       1.588       1.358       1.088      0.7759      0.4744      0.2807      0.1163       0.000    
  35    10.00       9.843       9.729       9.618       9.476       9.293       9.099       8.894       8.733       8.623    
        8.540       8.416       8.273       8.111       7.964       7.867       7.776       7.654       7.490       7.295    
        7.110       6.930       6.732       6.403       6.035       5.771       5.589       5.468       5.342       5.197    
        5.095       4.963       4.781       4.482       4.011       3.536       3.246       2.929       2.511       2.256    
        2.086       1.882       1.667       1.443       1.101      0.6597      0.3642      0.2393      0.1214       0.000    
  36    10.00       9.861       9.762       9.655       9.503       9.284       9.046       8.853       8.739       8.655    
        8.539       8.392       8.258       8.113       7.983       7.887       7.795       7.680       7.549       7.363    
        7.167       6.977       6.719       6.349       5.997       5.736       5.569       5.427       5.264       5.140    
        5.016       4.857       4.568       4.135       3.720       3.411       3.149       2.822       2.497       2.330    
        2.158       1.975       1.758       1.469       1.004      0.5551      0.3419      0.2187      0.1124       0.000    
  37    10.00       9.875       9.798       9.682       9.478       9.238       9.027       8.877       8.782       8.679    
        8.526       8.368       8.250       8.123       7.999       7.905       7.815       7.708       7.564       7.393    
        7.232       7.013       6.676       6.324       5.979       5.685       5.477       5.299       5.149       5.031    
        4.893       4.655       4.231       3.859       3.588       3.329       3.065       2.813       2.585       2.400    
        2.235       2.030       1.783       1.403      0.9189      0.5347      0.3200      0.2034      0.1020       0.000    
  38    10.00       9.893       9.800       9.672       9.461       9.212       9.033       8.921       8.821       8.695    
        8.531       8.366       8.249       8.130       8.004       7.907       7.826       7.728       7.580       7.433    
        7.276       7.000       6.607       6.223       5.861       5.568       5.336       5.142       5.005       4.891    
        4.721       4.333       3.980       3.766       3.507       3.258       3.073       2.867       2.660       2.483    
        2.289       2.010       1.698       1.286      0.8062      0.5118      0.3599      0.2242      0.1006       0.000    
  39    10.00       9.892       9.785       9.651       9.446       9.220       9.058       8.958       8.832       8.691    
        8.557       8.389       8.256       8.139       8.016       7.910       7.817       7.715       7.594       7.459    
        7.256       6.945       6.521       6.085       5.716       5.436       5.169       4.966       4.879       4.759    
        4.468       4.101       3.906       3.667       3.433       3.262       3.114       2.928       2.729       2.565    
        2.283       1.889       1.524       1.081      0.7184      0.5542      0.4124      0.2685      0.1381       0.000    
  40    10.00       9.882       9.788       9.651       9.462       9.272       9.113       8.978       8.827       8.698    
        8.596       8.428       8.258       8.138       8.024       7.898       7.793       7.714       7.604       7.421    
        7.176       6.810       6.379       5.966       5.598       5.301       4.987       4.834       4.753       4.592    
        4.333       4.086       3.825       3.587       3.429       3.288       3.148       2.975       2.794       2.579    
        2.199       1.771       1.376       1.018      0.7704      0.6013      0.4601      0.3247      0.1594       0.000    
  41    10.00       9.898       9.822       9.688       9.492       9.293       9.140       9.017       8.869       8.714    
        8.590       8.432       8.271       8.158       8.021       7.871       7.783       7.692       7.537       7.328    
        7.071       6.710       6.276       5.876       5.505       5.100       4.819       4.744       4.649       4.534    
        4.340       4.043       3.787       3.606       3.453       3.329       3.177       3.013       2.826       2.491    
        2.048       1.633       1.291       1.028      0.8133      0.6564      0.5055      0.3571      0.1880       0.000    
  42    10.00       9.923       9.839       9.709       9.539       9.347       9.172       9.046       8.909       8.733    
        8.573       8.420       8.280       8.171       8.022       7.865       7.754       7.626       7.455       7.214    
        6.915       6.520       6.141       5.739       5.251       4.903       4.770       4.708       4.629       4.510    
        4.283       4.025       3.793       3.612       3.492       3.360       3.227       3.051       2.752       2.309    
        1.923       1.615       1.319       1.022      0.8233      0.6900      0.5453      0.3716      0.2062       0.000    
  43    10.00       9.939       9.848       9.713       9.544       9.383       9.227       9.084       8.910       8.726    
        8.577       8.422       8.282       8.179       8.036       7.853       7.701       7.554       7.320       7.016    
        6.729       6.353       6.006       5.542       5.085       4.864       4.761       4.689       4.617       4.491    
        4.277       4.045       3.824       3.651       3.537       3.408       3.232       2.981       2.545       2.155    
        1.916       1.644       1.332       1.025      0.8146      0.6914      0.5800      0.4017      0.1882       0.000    
  44    10.00       9.931       9.853       9.712       9.557       9.441       9.281       9.082       8.885       8.731    
        8.580       8.422       8.298       8.187       8.016       7.814       7.638       7.462       7.188       6.891    
        6.552       6.181       5.813       5.353       5.015       4.853       4.764       4.703       4.623       4.465    
        4.250       4.066       3.873       3.714       3.597       3.416       3.184       2.825       2.386       2.131    
        1.912       1.628       1.318       1.038      0.8240      0.6930      0.5802      0.3934      0.1733       0.000    
  45    10.00       9.917       9.822       9.708       9.595       9.443       9.272       9.080       8.885       8.728    
        8.570       8.426       8.316       8.184       7.995       7.776       7.578       7.380       7.086       6.740    
        6.354       5.966       5.573       5.239       5.008       4.871       4.785       4.719       4.615       4.487    
        4.303       4.094       3.922       3.758       3.588       3.398       3.145       2.766       2.387       2.089    
        1.841       1.575       1.286       1.036      0.8494      0.7409      0.5725      0.3408      0.1553       0.000    
  46    10.00       9.899       9.801       9.709       9.579       9.404       9.237       9.080       8.886       8.717    
        8.576       8.442       8.330       8.170       7.967       7.770       7.561       7.302       6.987       6.613    
        6.163       5.781       5.470       5.218       5.043       4.921       4.813       4.724       4.642       4.500    
        4.303       4.122       3.953       3.762       3.594       3.416       3.132       2.695       2.300       2.035    
        1.803       1.548       1.278       1.058      0.9142      0.7746      0.5189      0.2551      0.1109       0.000    
  47    10.00       9.892       9.792       9.665       9.513       9.369       9.226       9.055       8.877       8.727    
        8.597       8.477       8.315       8.141       7.959       7.767       7.534       7.234       6.941       6.488    
        6.003       5.707       5.441       5.244       5.081       4.961       4.851       4.743       4.648       4.500    
        4.293       4.115       3.943       3.764       3.620       3.404       3.010       2.620       2.291       2.010    
        1.807       1.567       1.326       1.115      0.9360      0.7103      0.4267      0.2230      9.2888E-02   0.000    
  48    10.00       9.880       9.759       9.623       9.486       9.358       9.213       9.056       8.891       8.743    
        8.611       8.468       8.290       8.111       7.932       7.741       7.517       7.235       6.871       6.423    
        6.007       5.703       5.445       5.264       5.130       4.981       4.869       4.779       4.661       4.459    
        4.258       4.083       3.926       3.795       3.605       3.320       2.947       2.597       2.285       2.039    
        1.820       1.591       1.374       1.135      0.8676      0.5769      0.3646      0.2162      9.7697E-02   0.000    
  49    10.00       9.869       9.737       9.604       9.491       9.359       9.205       9.051       8.918       8.763    
        8.605       8.424       8.249       8.099       7.895       7.709       7.522       7.207       6.848       6.492    
        6.052       5.714       5.457       5.298       5.140       4.980       4.893       4.805       4.614       4.372    
        4.200       4.061       3.949       3.777       3.557       3.304       2.931       2.582       2.338       2.076    
        1.818       1.608       1.377       1.096      0.7680      0.5142      0.3646      0.2353      0.1207       0.000    
  50    10.00       9.874       9.742       9.606       9.483       9.353       9.216       9.064       8.924       8.786    
        8.591       8.402       8.242       8.040       7.833       7.691       7.513       7.269       6.913       6.561    
        6.113       5.687       5.463       5.302       5.137       5.006       4.901       4.783       4.557       4.328    
        4.186       4.072       3.940       3.762       3.559       3.317       2.941       2.583       2.346       2.109    
        1.865       1.600       1.340       1.039      0.7159      0.5262      0.3923      0.2659      0.1604       0.000    

 HEAD WILL BE SAVED ON UNIT   51 AT END OF TIME STEP  12, STRESS PERIOD    2

 DRAWDOWN WILL BE SAVED ON UNIT   52 AT END OF TIME STEP  12, STRESS PERIOD    2
1
  VOLUMETRIC BUDGET FOR ENTIRE MODEL AT END OF TIME STEP 12 IN STRESS PERIOD   2
  ------------------------------------------------------------------------------

     CUMULATIVE VOLUMES      L**3       RATES FOR THIS TIME STEP      L**3/T
     ------------------                 ------------------------

           IN:                                      IN:
           ---                                      ---
             STORAGE =        5999.9004               STORAGE =         499.9534
       CONSTANT HEAD =        4842.0791         CONSTANT HEAD =         372.5055
               WELLS =           0.0000                 WELLS =           0.0000

            TOTAL IN =       10841.9795              TOTAL IN =         872.4589

          OUT:                                     OUT:
          ----                                     ----
             STORAGE =       1.1127E-02               STORAGE =       3.5992E-05
       CONSTANT HEAD =        4841.9673         CONSTANT HEAD =         372.4588
               WELLS =        6000.0000                 WELLS =         500.0000

           TOTAL OUT =       10841.9785             TOTAL OUT =         872.4589

            IN - OUT =       9.7656E-04              IN - OUT =           0.0000

 PERCENT DISCREPANCY =           0.00     PERCENT DISCREPANCY =           0.00






          TIME SUMMARY AT END OF TIME STEP  12 IN STRESS PERIOD    2
                    SECONDS     MINUTES      HOURS       DAYS        YEARS
                    -----------------------------------------------------------
   TIME STEP LENGTH  86400.      1440.0      24.000      1.0000     2.73785E-03
 STRESS PERIOD TIME 1.03680E+06  17280.      288.00      12.000     3.28542E-02
         TOTAL TIME 1.12320E+06  18720.      312.00      13.000     3.55921E-02
1
 
 SOLVING FOR HEAD 

 OUTPUT CONTROL FOR STRESS PERIOD    2   TIME STEP  13
    SAVE HEAD FOR ALL LAYERS
    SAVE DRAWDOWN FOR ALL LAYERS
    SAVE BUDGET
    PRINT HEAD FOR ALL LAYERS
    PRINT BUDGET
 UBDSV1 SAVING "         STORAGE" ON UNIT  53 AT TIME STEP 13, STRESS PERIOD   2
 UBDSV2 SAVING "   CONSTANT HEAD" ON UNIT  53 AT TIME STEP 13, STRESS PERIOD   2
 UBDSV1 SAVING "FLOW RIGHT FACE " ON UNIT  53 AT TIME STEP 13, STRESS PERIOD   2
 UBDSV1 SAVING "FLOW FRONT FACE " ON UNIT  53 AT TIME STEP 13, STRESS PERIOD   2
1
              HEAD IN LAYER   1 AT END OF TIME STEP  13 IN STRESS PERIOD    2
  ---------------------------------------------------------------------------

            1           2           3           4           5           6           7           8           9          10
           11          12          13          14          15          16          17          18          19          20
           21          22          23          24          25          26          27          28          29          30
           31          32          33          34          35          36          37          38          39          40
           41          42          43          44          45          46          47          48          49          50
 ........................................................................................................................
   1    10.00       9.953       9.906       9.851       9.808       9.771       9.722       9.655       9.581       9.513    
        9.362       9.174       9.035       8.881       8.716       8.549       8.395       8.217       7.979       7.743    
        7.582       7.397       7.154       6.907       6.687       6.495       6.222       5.973       5.797       5.612    
        5.451       5.345       5.227       5.093       4.964       4.804       4.632       4.400       4.135       3.846    
        3.475       3.099       2.607       2.072       1.670       1.381       1.165      0.9189      0.5394       0.000    
   2    10.00       9.948       9.898       9.852       9.815       9.779       9.725       9.656       9.588       9.496    
        9.350       9.181       9.025       8.884       8.732       8.561       8.377       8.195       7.973       7.735    
        7.559       7.408       7.149       6.883       6.687       6.471       6.208       5.970       5.769       5.594    
        5.457       5.359       5.259       5.114       4.963       4.804       4.607       4.391       4.134       3.805    
        3.458       3.137       2.620       2.088       1.732       1.474       1.225      0.9490      0.5728       0.000    
   3    10.00       9.940       9.898       9.866       9.831       9.794       9.735       9.653       9.571       9.471    
        9.338       9.189       9.039       8.897       8.716       8.502       8.324       8.166       7.963       7.754    
        7.573       7.359       7.106       6.871       6.660       6.418       6.169       5.935       5.728       5.595    
        5.480       5.384       5.283       5.124       4.965       4.797       4.601       4.360       4.073       3.821    
        3.512       3.074       2.570       2.187       1.883       1.582       1.276      0.9619      0.5428       0.000    
   4    10.00       9.940       9.903       9.874       9.850       9.811       9.744       9.649       9.552       9.453    
        9.326       9.192       9.042       8.865       8.644       8.446       8.318       8.140       7.944       7.781    
        7.537       7.268       7.045       6.838       6.634       6.347       6.073       5.888       5.742       5.625    
        5.519       5.417       5.308       5.125       4.929       4.778       4.572       4.322       4.075       3.851    
        3.500       3.017       2.635       2.311       1.984       1.642       1.273      0.9056      0.4639       0.000    
   5    10.00       9.945       9.911       9.882       9.860       9.820       9.749       9.642       9.533       9.434    
        9.327       9.190       8.999       8.792       8.605       8.448       8.290       8.126       7.942       7.715    
        7.435       7.213       7.028       6.817       6.559       6.265       6.038       5.903       5.782       5.665    
        5.544       5.419       5.296       5.121       4.922       4.738       4.552       4.353       4.125       3.829    
        3.430       3.060       2.732       2.404       2.046       1.648       1.184      0.7630      0.3950       0.000    
   6    10.00       9.954       9.921       9.893       9.863       9.819       9.743       9.628       9.533       9.428    
        9.308       9.139       8.931       8.759       8.588       8.411       8.251       8.105       7.900       7.646    
        7.398       7.186       6.999       6.743       6.464       6.239       6.053       5.924       5.795       5.675    
        5.567       5.430       5.274       5.094       4.901       4.742       4.577       4.394       4.153       3.833    
        3.480       3.121       2.784       2.453       2.064       1.582       1.082      0.7177      0.3694       0.000    
   7    10.00       9.960       9.931       9.902       9.870       9.817       9.716       9.605       9.507       9.378    
        9.256       9.078       8.889       8.714       8.540       8.363       8.208       8.075       7.844       7.573    
        7.352       7.141       6.933       6.686       6.448       6.240       6.076       5.931       5.795       5.695    
        5.583       5.435       5.268       5.081       4.911       4.769       4.617       4.425       4.176       3.880    
        3.528       3.157       2.806       2.440       2.055       1.549       1.036      0.6838      0.3236       0.000    
   8    10.00       9.967       9.941       9.909       9.872       9.787       9.665       9.560       9.439       9.316    
        9.182       9.001       8.843       8.667       8.474       8.305       8.171       8.015       7.802       7.541    
        7.288       7.093       6.922       6.672       6.429       6.244       6.060       5.908       5.809       5.714    
        5.584       5.436       5.291       5.121       4.935       4.784       4.667       4.516       4.266       3.922    
        3.534       3.202       2.873       2.445       2.016       1.450      0.9598      0.6700      0.3100       0.000    
   9    10.00       9.974       9.945       9.909       9.847       9.736       9.607       9.486       9.380       9.253    
        9.097       8.937       8.782       8.615       8.419       8.259       8.136       7.956       7.750       7.491    
        7.270       7.080       6.849       6.601       6.397       6.234       6.046       5.910       5.812       5.707    
        5.586       5.449       5.312       5.161       4.999       4.845       4.717       4.581       4.320       3.944    
        3.584       3.286       2.937       2.522       1.886       1.248      0.9145      0.5667      0.2162       0.000    
  10    10.00       9.974       9.944       9.894       9.799       9.668       9.526       9.432       9.332       9.185    
        9.048       8.891       8.738       8.560       8.382       8.240       8.078       7.894       7.680       7.473    
        7.259       6.982       6.749       6.552       6.376       6.230       6.058       5.913       5.818       5.720    
        5.588       5.441       5.316       5.173       5.028       4.918       4.786       4.626       4.325       3.950    
        3.664       3.398       2.996       2.371       1.635       1.173      0.8303      0.5068      0.2528       0.000    
  11    10.00       9.974       9.935       9.857       9.751       9.605       9.480       9.402       9.284       9.158    
        9.028       8.865       8.683       8.496       8.347       8.198       8.051       7.856       7.652       7.449    
        7.162       6.897       6.706       6.526       6.355       6.197       6.040       5.918       5.832       5.738    
        5.590       5.448       5.337       5.205       5.077       4.952       4.803       4.627       4.342       4.037    
        3.733       3.386       2.947       2.259       1.569       1.103      0.7784      0.5903      0.3260       0.000    
  12    10.00       9.973       9.917       9.818       9.680       9.536       9.438       9.360       9.258       9.145    
        9.004       8.832       8.652       8.485       8.334       8.171       8.004       7.811       7.608       7.347    
        7.069       6.865       6.679       6.498       6.314       6.155       6.037       5.936       5.829       5.719    
        5.588       5.470       5.369       5.257       5.139       5.012       4.845       4.626       4.358       4.079    
        3.752       3.373       2.773       2.000       1.415       1.087      0.8646      0.6266      0.3570       0.000    
  13    10.00       9.964       9.878       9.743       9.600       9.478       9.399       9.331       9.245       9.137    
        8.990       8.814       8.648       8.515       8.341       8.143       7.950       7.743       7.524       7.275    
        7.033       6.817       6.621       6.439       6.264       6.142       6.051       5.927       5.792       5.693    
        5.601       5.499       5.404       5.303       5.190       5.073       4.915       4.659       4.378       4.047    
        3.671       3.194       2.502       1.876       1.449       1.169      0.9092      0.6282      0.3103       0.000    
  14    10.00       9.934       9.812       9.664       9.533       9.438       9.385       9.324       9.241       9.125    
        8.965       8.815       8.679       8.540       8.350       8.119       7.913       7.683       7.440       7.188    
        6.957       6.746       6.550       6.372       6.227       6.142       6.038       5.894       5.774       5.689    
        5.616       5.520       5.433       5.334       5.227       5.128       4.943       4.678       4.377       3.964    
        3.521       2.963       2.429       1.970       1.544       1.214      0.9254      0.6289      0.2800       0.000    
  15    10.00       9.877       9.743       9.612       9.507       9.434       9.377       9.320       9.240       9.133    
        8.992       8.847       8.715       8.526       8.310       8.094       7.863       7.628       7.346       7.077    
        6.866       6.665       6.478       6.331       6.217       6.120       6.007       5.866       5.763       5.694    
        5.617       5.533       5.459       5.365       5.258       5.150       4.954       4.697       4.319       3.873    
        3.413       2.908       2.473       1.998       1.638       1.286      0.9368      0.6227      0.2553       0.000    
  16    10.00       9.858       9.713       9.593       9.504       9.438       9.379       9.327       9.250       9.141    
        9.011       8.874       8.718       8.489       8.259       8.082       7.861       7.549       7.232       6.980    
        6.759       6.585       6.437       6.305       6.181       6.088       5.967       5.844       5.755       5.678    
        5.615       5.548       5.463       5.378       5.281       5.155       4.972       4.661       4.248       3.838    
        3.441       2.950       2.457       2.038       1.698       1.328      0.9336      0.5578      0.2099       0.000    
  17    10.00       9.840       9.695       9.599       9.520       9.453       9.396       9.337       9.255       9.154    
        9.035       8.869       8.662       8.422       8.231       8.066       7.811       7.471       7.145       6.900    
        6.712       6.521       6.356       6.230       6.122       6.014       5.902       5.812       5.731       5.666    
        5.622       5.557       5.463       5.372       5.274       5.140       4.924       4.653       4.309       3.871    
        3.413       2.893       2.437       2.065       1.717       1.338      0.9533      0.5810      0.2455       0.000    
  18    10.00       9.831       9.695       9.613       9.542       9.478       9.421       9.350       9.270       9.163    
        9.023       8.832       8.606       8.404       8.218       7.989       7.699       7.395       7.108       6.866    
        6.640       6.395       6.246       6.140       6.044       5.927       5.844       5.767       5.708       5.665    
        5.621       5.556       5.458       5.353       5.248       5.102       4.888       4.660       4.358       3.947    
        3.347       2.793       2.420       2.067       1.770       1.371      0.9473      0.5693      0.2451       0.000    
  19    10.00       9.839       9.726       9.642       9.566       9.501       9.435       9.370       9.296       9.173    
        9.010       8.808       8.586       8.366       8.130       7.887       7.619       7.328       7.044       6.786    
        6.527       6.300       6.176       6.086       5.963       5.853       5.782       5.716       5.686       5.657    
        5.615       5.548       5.435       5.326       5.229       5.107       4.895       4.639       4.331       3.850    
        3.248       2.776       2.405       2.057       1.725       1.314      0.9093      0.5655      0.2664       0.000    
  20    10.00       9.848       9.752       9.678       9.605       9.529       9.450       9.380       9.306       9.182    
        9.006       8.797       8.543       8.262       7.997       7.801       7.535       7.222       6.969       6.712    
        6.476       6.283       6.132       6.002       5.850       5.769       5.712       5.669       5.654       5.637    
        5.609       5.526       5.410       5.322       5.223       5.088       4.845       4.584       4.234       3.698    
        3.179       2.802       2.372       1.976       1.616       1.212      0.9116      0.5613      0.2488       0.000    
  21    10.00       9.871       9.784       9.710       9.629       9.557       9.470       9.394       9.314       9.176    
        8.987       8.736       8.425       8.103       7.858       7.680       7.433       7.202       6.962       6.684    
        6.456       6.246       6.059       5.823       5.692       5.646       5.582       5.590       5.604       5.592    
        5.565       5.492       5.405       5.327       5.220       5.022       4.774       4.544       4.038       3.488    
        3.105       2.701       2.264       1.897       1.516       1.163      0.8252      0.4944      0.2483       0.000    
  22    10.00       9.899       9.808       9.727       9.649       9.581       9.482       9.384       9.292       9.151    
        8.924       8.614       8.269       7.970       7.759       7.573       7.383       7.216       6.958       6.687    
        6.449       6.158       5.829       5.570       5.468       5.372       5.375       5.454       5.485       5.495    
        5.489       5.447       5.396       5.328       5.210       4.981       4.715       4.305       3.744       3.396    
        2.987       2.555       2.165       1.813       1.489       1.070      0.7159      0.4740      0.2664       0.000    
  23    10.00       9.900       9.813       9.739       9.658       9.567       9.457       9.368       9.288       9.111    
        8.836       8.505       8.192       7.933       7.718       7.561       7.383       7.166       6.919       6.703    
        6.379       5.950       5.593       5.323       4.935       4.936       5.133       5.250       5.327       5.390    
        5.407       5.400       5.383       5.319       5.178       4.924       4.537       4.068       3.617       3.199    
        2.815       2.459       2.086       1.807       1.397      0.9724      0.6963      0.4558      0.2366       0.000    
  24    10.00       9.922       9.823       9.727       9.633       9.529       9.430       9.354       9.265       9.057    
        8.745       8.434       8.176       7.952       7.749       7.545       7.327       7.129       6.932       6.679    
        6.292       5.865       5.440       4.645       3.780       4.288       4.771       5.047       5.191       5.299    
        5.342       5.359       5.354       5.273       5.119       4.805       4.374       3.980       3.480       3.038    
        2.739       2.398       2.044       1.689       1.250      0.9021      0.6698      0.4269      0.1883       0.000    
  25    10.00       9.915       9.800       9.683       9.573       9.479       9.404       9.329       9.218       9.003    
        8.674       8.386       8.190       7.982       7.749       7.539       7.336       7.164       6.985       6.666    
        6.221       5.796       5.114       3.808       1.039       3.713       4.480       4.916       5.133       5.247    
        5.303       5.328       5.306       5.207       5.045       4.715       4.257       3.805       3.399       3.017    
        2.674       2.304       1.903       1.528       1.112      0.8285      0.6672      0.4151      0.1538       0.000    
  26    10.00       9.893       9.746       9.615       9.527       9.451       9.376       9.283       9.152       8.886    
        8.582       8.382       8.195       7.988       7.771       7.570       7.381       7.214       6.993       6.655    
        6.264       5.797       5.203       4.503       3.852       4.203       4.656       4.958       5.132       5.232    
        5.283       5.296       5.251       5.143       4.955       4.594       4.107       3.740       3.407       2.992    
        2.631       2.212       1.752       1.351       1.011      0.8111      0.6313      0.3701      0.1575       0.000    
  27    10.00       9.870       9.713       9.591       9.516       9.417       9.319       9.202       9.026       8.775    
        8.561       8.384       8.193       7.990       7.777       7.617       7.490       7.269       6.990       6.645    
        6.308       5.976       5.509       5.060       4.701       4.762       4.932       5.073       5.176       5.239    
        5.278       5.268       5.213       5.083       4.859       4.471       4.089       3.762       3.375       2.983    
        2.609       2.104       1.578       1.202      0.9653      0.7981      0.6005      0.3914      0.1887       0.000    
  28    10.00       9.853       9.738       9.600       9.473       9.352       9.244       9.106       8.932       8.737    
        8.561       8.401       8.210       7.983       7.793       7.667       7.523       7.275       6.946       6.636    
        6.405       6.163       5.808       5.470       5.248       5.174       5.165       5.199       5.251       5.281    
        5.281       5.254       5.179       5.021       4.754       4.416       4.116       3.737       3.337       2.944    
        2.490       2.016       1.494       1.120      0.9548      0.7951      0.6192      0.4088      0.1895       0.000    
  29    10.00       9.857       9.715       9.568       9.417       9.300       9.178       9.025       8.878       8.724    
        8.566       8.406       8.218       8.024       7.863       7.713       7.519       7.237       6.936       6.698    
        6.508       6.301       6.017       5.721       5.539       5.435       5.363       5.337       5.335       5.315    
        5.283       5.229       5.135       4.952       4.670       4.393       4.123       3.773       3.328       2.833    
        2.419       1.915       1.396       1.104      0.9579      0.8008      0.6146      0.3994      0.1986       0.000    
  30    10.00       9.837       9.692       9.517       9.363       9.256       9.126       8.991       8.877       8.737    
        8.573       8.397       8.223       8.067       7.922       7.749       7.498       7.234       6.998       6.781    
        6.622       6.423       6.167       5.910       5.693       5.587       5.506       5.445       5.393       5.337    
        5.274       5.206       5.091       4.876       4.636       4.424       4.154       3.704       3.164       2.670    
        2.257       1.799       1.405       1.134      0.9799      0.8028      0.6038      0.4187      0.2053       0.000    
  31    10.00       9.815       9.648       9.481       9.342       9.231       9.107       8.987       8.872       8.733    
        8.568       8.388       8.236       8.104       7.961       7.762       7.512       7.290       7.110       6.924    
        6.758       6.536       6.280       6.063       5.839       5.670       5.576       5.490       5.423       5.344    
        5.265       5.176       5.036       4.843       4.623       4.397       3.985       3.501       3.060       2.583    
        2.195       1.740       1.358       1.163      0.9983      0.8315      0.6244      0.4193      0.1987       0.000    
  32    10.00       9.800       9.621       9.478       9.360       9.249       9.118       8.980       8.840       8.708    
        8.542       8.385       8.247       8.098       7.961       7.787       7.595       7.431       7.248       7.056    
        6.885       6.669       6.416       6.193       5.953       5.725       5.613       5.519       5.427       5.320    
        5.227       5.151       4.979       4.764       4.574       4.274       3.785       3.342       2.962       2.530    
        2.080       1.659       1.380       1.230       1.050      0.8389      0.6198      0.3984      0.1987       0.000    
  33    10.00       9.794       9.640       9.525       9.407       9.276       9.117       8.962       8.810       8.657    
        8.518       8.385       8.247       8.103       7.950       7.814       7.672       7.530       7.376       7.182    
        6.976       6.771       6.566       6.305       6.013       5.763       5.617       5.518       5.404       5.285    
        5.194       5.082       4.905       4.718       4.457       4.062       3.580       3.217       2.857       2.360    
        1.956       1.683       1.461       1.283       1.077      0.8556      0.5871      0.3506      0.1579       0.000    
  34    10.00       9.812       9.686       9.577       9.445       9.283       9.114       8.931       8.762       8.633    
        8.509       8.387       8.261       8.111       7.973       7.840       7.715       7.601       7.447       7.240    
        7.043       6.863       6.655       6.376       6.055       5.777       5.605       5.486       5.372       5.243    
        5.134       5.013       4.854       4.626       4.319       3.844       3.390       3.076       2.659       2.227    
        1.981       1.802       1.588       1.358       1.088      0.7759      0.4744      0.2807      0.1163       0.000    
  35    10.00       9.843       9.729       9.618       9.476       9.293       9.099       8.894       8.733       8.622    
        8.539       8.414       8.271       8.108       7.960       7.862       7.771       7.647       7.482       7.286    
        7.099       6.918       6.720       6.390       6.021       5.757       5.575       5.454       5.329       5.186    
        5.084       4.954       4.774       4.478       4.009       3.535       3.245       2.929       2.511       2.256    
        2.086       1.882       1.667       1.443       1.101      0.6597      0.3642      0.2393      0.1214       0.000    
  36    10.00       9.861       9.762       9.655       9.503       9.284       9.045       8.853       8.738       8.654    
        8.538       8.391       8.257       8.110       7.980       7.883       7.791       7.675       7.543       7.357    
        7.159       6.968       6.710       6.341       5.987       5.725       5.558       5.416       5.254       5.130    
        5.008       4.850       4.563       4.132       3.719       3.411       3.148       2.822       2.497       2.330    
        2.158       1.975       1.758       1.469       1.004      0.5551      0.3419      0.2187      0.1124       0.000    
  37    10.00       9.875       9.798       9.681       9.478       9.238       9.027       8.877       8.782       8.678    
        8.525       8.367       8.249       8.121       7.997       7.902       7.812       7.704       7.560       7.388    
        7.227       7.008       6.670       6.318       5.972       5.678       5.470       5.292       5.143       5.024    
        4.886       4.651       4.228       3.857       3.588       3.328       3.065       2.813       2.585       2.400    
        2.235       2.030       1.783       1.403      0.9189      0.5347      0.3200      0.2034      0.1020       0.000    
  38    10.00       9.893       9.800       9.672       9.460       9.212       9.033       8.921       8.821       8.695    
        8.530       8.365       8.248       8.128       8.002       7.904       7.823       7.725       7.577       7.429    
        7.273       6.997       6.604       6.220       5.858       5.564       5.332       5.137       5.001       4.887    
        4.717       4.330       3.979       3.765       3.507       3.258       3.073       2.867       2.660       2.483    
        2.289       2.010       1.698       1.286      0.8062      0.5118      0.3599      0.2242      0.1006       0.000    
  39    10.00       9.892       9.785       9.651       9.446       9.220       9.058       8.958       8.831       8.690    
        8.556       8.389       8.255       8.138       8.015       7.908       7.815       7.713       7.592       7.456    
        7.254       6.943       6.520       6.084       5.714       5.434       5.167       4.964       4.876       4.757    
        4.466       4.100       3.905       3.666       3.432       3.262       3.114       2.928       2.729       2.565    
        2.283       1.889       1.524       1.081      0.7184      0.5542      0.4124      0.2685      0.1381       0.000    
  40    10.00       9.882       9.788       9.651       9.462       9.272       9.112       8.977       8.827       8.698    
        8.595       8.428       8.257       8.137       8.022       7.897       7.792       7.712       7.602       7.420    
        7.175       6.809       6.378       5.965       5.597       5.299       4.986       4.833       4.752       4.591    
        4.332       4.085       3.825       3.587       3.429       3.287       3.148       2.975       2.793       2.578    
        2.199       1.771       1.376       1.018      0.7704      0.6013      0.4601      0.3247      0.1594       0.000    
  41    10.00       9.898       9.822       9.688       9.492       9.293       9.140       9.017       8.869       8.714    
        8.590       8.431       8.270       8.157       8.020       7.870       7.782       7.691       7.536       7.327    
        7.070       6.710       6.276       5.876       5.505       5.100       4.819       4.744       4.648       4.533    
        4.340       4.042       3.787       3.605       3.453       3.328       3.177       3.013       2.826       2.491    
        2.048       1.633       1.291       1.028      0.8133      0.6564      0.5055      0.3571      0.1880       0.000    
  42    10.00       9.923       9.839       9.709       9.539       9.347       9.172       9.046       8.909       8.733    
        8.572       8.420       8.280       8.170       8.022       7.865       7.754       7.625       7.454       7.213    
        6.915       6.520       6.141       5.739       5.251       4.902       4.770       4.707       4.629       4.510    
        4.283       4.025       3.793       3.612       3.491       3.360       3.227       3.051       2.752       2.309    
        1.923       1.615       1.319       1.022      0.8233      0.6900      0.5453      0.3716      0.2062       0.000    
  43    10.00       9.939       9.848       9.713       9.544       9.383       9.227       9.083       8.910       8.726    
        8.577       8.422       8.282       8.178       8.036       7.852       7.701       7.553       7.320       7.016    
        6.729       6.353       6.006       5.542       5.085       4.863       4.761       4.689       4.616       4.491    
        4.277       4.045       3.824       3.651       3.537       3.408       3.232       2.981       2.545       2.155    
        1.916       1.644       1.332       1.025      0.8146      0.6914      0.5800      0.4017      0.1882       0.000    
  44    10.00       9.931       9.853       9.712       9.557       9.441       9.281       9.082       8.885       8.731    
        8.580       8.422       8.298       8.187       8.016       7.814       7.637       7.462       7.188       6.891    
        6.552       6.181       5.813       5.353       5.015       4.853       4.763       4.703       4.623       4.464    
        4.250       4.065       3.873       3.714       3.597       3.416       3.184       2.825       2.386       2.131    
        1.912       1.628       1.318       1.038      0.8240      0.6930      0.5802      0.3934      0.1733       0.000    
  45    10.00       9.917       9.822       9.708       9.595       9.443       9.272       9.080       8.885       8.728    
        8.570       8.426       8.316       8.184       7.995       7.775       7.578       7.380       7.086       6.740    
        6.354       5.966       5.573       5.239       5.008       4.871       4.785       4.719       4.615       4.487    
        4.303       4.094       3.922       3.758       3.588       3.398       3.145       2.766       2.387       2.089    
        1.841       1.575       1.286       1.036      0.8494      0.7409      0.5725      0.3408      0.1553       0.000    
  46    10.00       9.899       9.801       9.709       9.579       9.404       9.237       9.080       8.886       8.717    
        8.576       8.442       8.330       8.170       7.967       7.770       7.561       7.302       6.987       6.613    
        6.163       5.781       5.470       5.218       5.043       4.921       4.813       4.724       4.642       4.500    
        4.303       4.122       3.953       3.762       3.594       3.416       3.132       2.695       2.300       2.035    
        1.803       1.548       1.278       1.058      0.9142      0.7746      0.5189      0.2551      0.1109       0.000    
  47    10.00       9.892       9.792       9.665       9.513       9.369       9.226       9.055       8.877       8.727    
        8.597       8.477       8.315       8.141       7.959       7.767       7.534       7.234       6.941       6.488    
        6.003       5.707       5.441       5.244       5.081       4.961       4.850       4.743       4.648       4.500    
        4.293       4.115       3.943       3.764       3.620       3.404       3.010       2.620       2.291       2.010    
        1.807       1.567       1.326       1.115      0.9360      0.7103      0.4267      0.2230      9.2888E-02   0.000    
  48    10.00       9.880       9.759       9.623       9.486       9.358       9.213       9.056       8.891       8.743    
        8.611       8.468       8.290       8.111       7.932       7.741       7.517       7.235       6.871       6.423    
        6.007       5.703       5.445       5.264       5.130       4.981       4.869       4.779       4.661       4.459    
        4.258       4.083       3.926       3.795       3.605       3.320       2.947       2.597       2.285       2.039    
        1.820       1.591       1.374       1.135      0.8676      0.5769      0.3646      0.2162      9.7697E-02   0.000    
  49    10.00       9.869       9.737       9.604       9.491       9.359       9.205       9.051       8.918       8.763    
        8.605       8.424       8.249       8.099       7.895       7.709       7.522       7.207       6.848       6.492    
        6.052       5.714       5.457       5.298       5.140       4.979       4.893       4.805       4.614       4.372    
        4.200       4.061       3.949       3.777       3.557       3.304       2.931       2.582       2.338       2.076    
        1.818       1.608       1.377       1.096      0.7680      0.5142      0.3646      0.2353      0.1207       0.000    
  50    10.00       9.874       9.742       9.606       9.483       9.353       9.216       9.064       8.924       8.786    
        8.591       8.402       8.242       8.040       7.833       7.691       7.513       7.269       6.913       6.561    
        6.113       5.687       5.463       5.302       5.137       5.006       4.901       4.783       4.557       4.328    
        4.186       4.072       3.940       3.762       3.559       3.317       2.941       2.583       2.346       2.109    
        1.865       1.600       1.340       1.039      0.7159      0.5262      0.3923      0.2659      0.1604       0.000    

 HEAD WILL BE SAVED ON UNIT   51 AT END OF TIME STEP  13, STRESS PERIOD    2

 DRAWDOWN WILL BE SAVED ON UNIT   52 AT END OF TIME STEP  13, STRESS PERIOD    2
1
  VOLUMETRIC BUDGET FOR ENTIRE MODEL AT END OF TIME STEP 13 IN STRESS PERIOD   2
  ------------------------------------------------------------------------------

     CUMULATIVE VOLUMES      L**3       RATES FOR THIS TIME STEP      L**3/T
     ------------------                 ------------------------

           IN:                                      IN:
           ---                                      ---
             STORAGE =        6499.8291               STORAGE =         499.9288
       CONSTANT HEAD =        5214.6094         CONSTANT HEAD =         372.5303
               WELLS =           0.0000                 WELLS =           0.0000

            TOTAL IN =       11714.4385              TOTAL IN =         872.4590

          OUT:                                     OUT:
          ----                                     ----
             STORAGE =       1.1143E-02               STORAGE =       1.6363E-05
       CONSTANT HEAD =        5214.4258         CONSTANT HEAD =         372.4586
               WELLS =        6500.0000                 WELLS =         500.0000

           TOTAL OUT =       11714.4365             TOTAL OUT =         872.4586

            IN - OUT =       1.9531E-03              IN - OUT =       4.2725E-04

 PERCENT DISCREPANCY =           0.00     PERCENT DISCREPANCY =           0.00






          TIME SUMMARY AT END OF TIME STEP  13 IN STRESS PERIOD    2
                    SECONDS     MINUTES      HOURS       DAYS        YEARS
                    -----------------------------------------------------------
   TIME STEP LENGTH  86400.      1440.0      24.000      1.0000     2.73785E-03
 STRESS PERIOD TIME 1.12320E+06  18720.      312.00      13.000     3.55921E-02
         TOTAL TIME 1.20960E+06  20160.      336.00      14.000     3.83299E-02
1
 
 SOLVING FOR HEAD 

 OUTPUT CONTROL FOR STRESS PERIOD    2   TIME STEP  14
    SAVE HEAD FOR ALL LAYERS
    SAVE DRAWDOWN FOR ALL LAYERS
    SAVE BUDGET
    PRINT HEAD FOR ALL LAYERS
    PRINT BUDGET
 UBDSV1 SAVING "         STORAGE" ON UNIT  53 AT TIME STEP 14, STRESS PERIOD   2
 UBDSV2 SAVING "   CONSTANT HEAD" ON UNIT  53 AT TIME STEP 14, STRESS PERIOD   2
 UBDSV1 SAVING "FLOW RIGHT FACE " ON UNIT  53 AT TIME STEP 14, STRESS PERIOD   2
 UBDSV1 SAVING "FLOW FRONT FACE " ON UNIT  53 AT TIME STEP 14, STRESS PERIOD   2
1
              HEAD IN LAYER   1 AT END OF TIME STEP  14 IN STRESS PERIOD    2
  ---------------------------------------------------------------------------

            1           2           3           4           5           6           7           8           9          10
           11          12          13          14          15          16          17          18          19          20
           21          22          23          24          25          26          27          28          29          30
           31          32          33          34          35          36          37          38          39          40
           41          42          43          44          45          46          47          48          49          50
 ........................................................................................................................
   1    10.00       9.953       9.906       9.851       9.808       9.771       9.722       9.655       9.581       9.513    
        9.362       9.174       9.035       8.881       8.716       8.549       8.395       8.217       7.979       7.743    
        7.582       7.397       7.153       6.907       6.687       6.495       6.221       5.973       5.797       5.611    
        5.451       5.345       5.227       5.093       4.964       4.804       4.632       4.400       4.135       3.846    
        3.475       3.099       2.607       2.072       1.670       1.381       1.165      0.9189      0.5394       0.000    
   2    10.00       9.948       9.898       9.852       9.815       9.779       9.725       9.656       9.588       9.496    
        9.350       9.181       9.025       8.884       8.732       8.561       8.377       8.195       7.973       7.735    
        7.559       7.408       7.149       6.883       6.687       6.470       6.208       5.970       5.769       5.594    
        5.457       5.358       5.258       5.114       4.963       4.804       4.607       4.391       4.134       3.805    
        3.458       3.137       2.620       2.088       1.732       1.474       1.225      0.9490      0.5728       0.000    
   3    10.00       9.940       9.898       9.866       9.831       9.794       9.735       9.653       9.571       9.471    
        9.338       9.189       9.039       8.897       8.716       8.502       8.324       8.166       7.963       7.754    
        7.573       7.359       7.106       6.871       6.659       6.418       6.169       5.935       5.727       5.595    
        5.480       5.383       5.282       5.123       4.965       4.797       4.601       4.360       4.073       3.821    
        3.511       3.074       2.570       2.187       1.883       1.582       1.276      0.9618      0.5428       0.000    
   4    10.00       9.940       9.903       9.874       9.850       9.811       9.744       9.649       9.552       9.453    
        9.326       9.192       9.042       8.865       8.644       8.446       8.318       8.140       7.944       7.781    
        7.537       7.268       7.045       6.838       6.633       6.347       6.073       5.887       5.741       5.625    
        5.519       5.417       5.308       5.124       4.929       4.778       4.572       4.321       4.075       3.851    
        3.500       3.017       2.635       2.311       1.984       1.642       1.273      0.9056      0.4639       0.000    
   5    10.00       9.945       9.911       9.882       9.860       9.820       9.749       9.642       9.533       9.434    
        9.327       9.190       8.998       8.792       8.605       8.448       8.290       8.126       7.942       7.715    
        7.434       7.212       7.027       6.817       6.559       6.264       6.037       5.902       5.781       5.664    
        5.543       5.419       5.295       5.121       4.921       4.737       4.552       4.352       4.125       3.829    
        3.430       3.060       2.732       2.404       2.046       1.648       1.184      0.7630      0.3950       0.000    
   6    10.00       9.954       9.921       9.893       9.863       9.819       9.743       9.628       9.533       9.428    
        9.308       9.139       8.931       8.759       8.588       8.411       8.251       8.104       7.900       7.646    
        7.398       7.185       6.998       6.742       6.463       6.238       6.052       5.923       5.794       5.674    
        5.566       5.429       5.273       5.093       4.900       4.741       4.577       4.394       4.153       3.832    
        3.480       3.121       2.784       2.453       2.064       1.582       1.082      0.7177      0.3694       0.000    
   7    10.00       9.960       9.931       9.902       9.870       9.817       9.716       9.605       9.507       9.378    
        9.256       9.078       8.889       8.714       8.540       8.363       8.208       8.075       7.844       7.573    
        7.352       7.140       6.933       6.685       6.447       6.239       6.075       5.930       5.794       5.693    
        5.582       5.434       5.267       5.080       4.910       4.768       4.616       4.425       4.175       3.880    
        3.528       3.156       2.806       2.440       2.055       1.549       1.036      0.6838      0.3235       0.000    
   8    10.00       9.967       9.941       9.909       9.872       9.787       9.665       9.560       9.439       9.316    
        9.182       9.001       8.843       8.667       8.474       8.304       8.170       8.014       7.801       7.540    
        7.287       7.092       6.921       6.670       6.427       6.242       6.058       5.906       5.807       5.712    
        5.582       5.433       5.289       5.119       4.934       4.783       4.666       4.516       4.265       3.921    
        3.534       3.202       2.873       2.445       2.015       1.450      0.9598      0.6700      0.3100       0.000    
   9    10.00       9.974       9.945       9.909       9.847       9.736       9.607       9.486       9.380       9.253    
        9.097       8.937       8.781       8.614       8.418       8.259       8.136       7.956       7.749       7.490    
        7.268       7.078       6.847       6.598       6.394       6.230       6.042       5.906       5.809       5.703    
        5.583       5.446       5.309       5.158       4.997       4.844       4.716       4.580       4.319       3.944    
        3.584       3.286       2.937       2.522       1.886       1.248      0.9145      0.5667      0.2162       0.000    
  10    10.00       9.974       9.944       9.894       9.799       9.668       9.526       9.432       9.332       9.185    
        9.048       8.891       8.738       8.560       8.382       8.239       8.078       7.893       7.679       7.471    
        7.257       6.979       6.745       6.547       6.371       6.225       6.053       5.908       5.813       5.716    
        5.584       5.437       5.312       5.170       5.025       4.916       4.785       4.624       4.324       3.949    
        3.663       3.398       2.996       2.371       1.635       1.173      0.8303      0.5068      0.2528       0.000    
  11    10.00       9.974       9.935       9.857       9.751       9.605       9.480       9.402       9.284       9.158    
        9.028       8.865       8.683       8.495       8.346       8.197       8.050       7.854       7.649       7.447    
        7.158       6.892       6.700       6.520       6.349       6.191       6.033       5.911       5.825       5.732    
        5.585       5.443       5.332       5.201       5.074       4.950       4.801       4.626       4.341       4.037    
        3.732       3.386       2.947       2.259       1.569       1.103      0.7784      0.5903      0.3260       0.000    
  12    10.00       9.973       9.917       9.818       9.680       9.536       9.438       9.360       9.258       9.145    
        9.004       8.832       8.651       8.484       8.333       8.170       8.002       7.809       7.605       7.343    
        7.063       6.859       6.672       6.491       6.306       6.146       6.028       5.928       5.822       5.711    
        5.581       5.464       5.363       5.252       5.135       5.009       4.843       4.624       4.357       4.079    
        3.751       3.372       2.773       2.000       1.415       1.087      0.8646      0.6266      0.3570       0.000    
  13    10.00       9.964       9.878       9.743       9.600       9.478       9.399       9.331       9.245       9.137    
        8.990       8.813       8.647       8.514       8.340       8.141       7.948       7.741       7.520       7.270    
        7.026       6.809       6.612       6.428       6.253       6.131       6.040       5.917       5.782       5.684    
        5.591       5.491       5.397       5.297       5.184       5.069       4.912       4.657       4.377       4.046    
        3.670       3.194       2.502       1.876       1.449       1.169      0.9092      0.6282      0.3103       0.000    
  14    10.00       9.934       9.812       9.664       9.533       9.438       9.385       9.324       9.241       9.125    
        8.964       8.815       8.678       8.540       8.348       8.117       7.910       7.679       7.435       7.180    
        6.948       6.735       6.538       6.359       6.214       6.129       6.025       5.881       5.762       5.678    
        5.605       5.511       5.425       5.327       5.221       5.123       4.940       4.676       4.375       3.963    
        3.521       2.963       2.429       1.970       1.544       1.214      0.9254      0.6289      0.2800       0.000    
  15    10.00       9.877       9.743       9.612       9.507       9.434       9.377       9.320       9.239       9.133    
        8.992       8.846       8.715       8.525       8.309       8.091       7.860       7.623       7.339       7.068    
        6.854       6.651       6.463       6.316       6.202       6.105       5.992       5.851       5.749       5.681    
        5.605       5.522       5.449       5.357       5.252       5.144       4.950       4.694       4.317       3.872    
        3.413       2.908       2.473       1.998       1.638       1.286      0.9368      0.6227      0.2553       0.000    
  16    10.00       9.858       9.713       9.593       9.504       9.438       9.379       9.327       9.250       9.141    
        9.011       8.874       8.717       8.488       8.257       8.079       7.856       7.542       7.222       6.967    
        6.743       6.568       6.418       6.286       6.162       6.070       5.948       5.827       5.739       5.663    
        5.601       5.535       5.453       5.369       5.273       5.149       4.968       4.659       4.246       3.837    
        3.441       2.949       2.457       2.038       1.698       1.328      0.9336      0.5578      0.2099       0.000    
  17    10.00       9.840       9.695       9.599       9.520       9.453       9.396       9.337       9.255       9.154    
        9.034       8.868       8.661       8.420       8.227       8.062       7.804       7.461       7.131       6.883    
        6.693       6.500       6.333       6.206       6.099       5.991       5.879       5.791       5.711       5.648    
        5.605       5.542       5.452       5.362       5.266       5.133       4.919       4.650       4.308       3.871    
        3.412       2.893       2.437       2.065       1.717       1.338      0.9533      0.5810      0.2455       0.000    
  18    10.00       9.831       9.695       9.613       9.542       9.478       9.421       9.350       9.270       9.163    
        9.022       8.830       8.604       8.401       8.214       7.983       7.690       7.382       7.091       6.846    
        6.617       6.369       6.219       6.112       6.016       5.899       5.817       5.741       5.683       5.644    
        5.602       5.540       5.445       5.342       5.239       5.095       4.883       4.656       4.356       3.946    
        3.347       2.793       2.420       2.066       1.770       1.371      0.9473      0.5693      0.2451       0.000    
  19    10.00       9.839       9.726       9.642       9.566       9.501       9.435       9.369       9.296       9.173    
        9.009       8.806       8.583       8.362       8.124       7.878       7.608       7.312       7.023       6.762    
        6.499       6.270       6.146       6.055       5.932       5.823       5.752       5.687       5.659       5.631    
        5.593       5.529       5.421       5.314       5.219       5.099       4.889       4.635       4.329       3.849    
        3.247       2.776       2.405       2.057       1.725       1.314      0.9093      0.5655      0.2664       0.000    
  20    10.00       9.848       9.752       9.678       9.605       9.528       9.450       9.380       9.306       9.182    
        9.005       8.796       8.540       8.257       7.989       7.790       7.521       7.203       6.945       6.684    
        6.445       6.251       6.099       5.968       5.816       5.735       5.680       5.638       5.625       5.609    
        5.583       5.506       5.394       5.309       5.212       5.080       4.840       4.581       4.232       3.698    
        3.179       2.802       2.372       1.976       1.616       1.212      0.9116      0.5613      0.2488       0.000    
  21    10.00       9.871       9.784       9.710       9.629       9.557       9.470       9.394       9.314       9.175    
        8.986       8.734       8.421       8.096       7.848       7.667       7.415       7.180       6.937       6.655    
        6.424       6.212       6.023       5.785       5.654       5.609       5.546       5.557       5.572       5.561    
        5.537       5.468       5.386       5.312       5.208       5.015       4.769       4.541       4.037       3.487    
        3.105       2.700       2.264       1.897       1.516       1.163      0.8252      0.4944      0.2483       0.000    
  22    10.00       9.899       9.808       9.727       9.649       9.581       9.482       9.384       9.292       9.151    
        8.923       8.611       8.263       7.961       7.747       7.558       7.364       7.194       6.932       6.656    
        6.415       6.120       5.789       5.528       5.427       5.331       5.335       5.416       5.448       5.460    
        5.457       5.419       5.373       5.310       5.197       4.974       4.711       4.303       3.743       3.396    
        2.987       2.555       2.165       1.813       1.489       1.070      0.7159      0.4740      0.2664       0.000    
  23    10.00       9.900       9.813       9.739       9.658       9.567       9.457       9.368       9.287       9.111    
        8.834       8.502       8.186       7.923       7.706       7.545       7.364       7.142       6.891       6.671    
        6.342       5.908       5.549       5.279       4.889       4.890       5.090       5.207       5.287       5.352    
        5.371       5.368       5.356       5.299       5.165       4.917       4.534       4.067       3.617       3.199    
        2.815       2.459       2.086       1.807       1.397      0.9724      0.6963      0.4558      0.2366       0.000    
  24    10.00       9.922       9.823       9.727       9.633       9.529       9.430       9.354       9.264       9.057    
        8.743       8.430       8.170       7.943       7.737       7.529       7.306       7.105       6.904       6.646    
        6.253       5.822       5.394       4.596       3.729       4.239       4.723       5.001       5.147       5.258    
        5.305       5.324       5.324       5.251       5.105       4.798       4.371       3.979       3.480       3.038    
        2.739       2.398       2.044       1.689       1.250      0.9021      0.6698      0.4269      0.1883       0.000    
  25    10.00       9.915       9.800       9.683       9.573       9.479       9.404       9.328       9.217       9.002    
        8.672       8.382       8.184       7.974       7.737       7.523       7.315       7.140       6.957       6.632    
        6.180       5.751       5.065       3.755      0.9824       3.661       4.430       4.869       5.089       5.206    
        5.265       5.293       5.276       5.185       5.030       4.708       4.254       3.803       3.399       3.017    
        2.673       2.304       1.903       1.528       1.112      0.8285      0.6672      0.4151      0.1538       0.000    
  26    10.00       9.893       9.746       9.615       9.527       9.451       9.376       9.283       9.152       8.885    
        8.580       8.378       8.189       7.979       7.759       7.554       7.361       7.191       6.964       6.620    
        6.223       5.751       5.154       4.451       3.799       4.150       4.606       4.910       5.087       5.191    
        5.244       5.262       5.223       5.122       4.941       4.587       4.104       3.739       3.406       2.991    
        2.631       2.212       1.752       1.351       1.011      0.8111      0.6313      0.3701      0.1575       0.000    
  27    10.00       9.870       9.713       9.590       9.516       9.417       9.319       9.201       9.026       8.773    
        8.558       8.380       8.188       7.982       7.765       7.602       7.472       7.247       6.962       6.610    
        6.268       5.933       5.462       5.010       4.650       4.712       4.883       5.026       5.132       5.198    
        5.242       5.237       5.187       5.063       4.846       4.464       4.085       3.761       3.375       2.983    
        2.609       2.103       1.578       1.202      0.9653      0.7981      0.6005      0.3914      0.1887       0.000    
  28    10.00       9.853       9.738       9.600       9.473       9.352       9.244       9.106       8.931       8.736    
        8.558       8.397       8.205       7.975       7.782       7.653       7.507       7.253       6.918       6.603    
        6.368       6.123       5.764       5.423       5.200       5.126       5.119       5.154       5.209       5.244    
        5.248       5.225       5.155       5.003       4.743       4.410       4.112       3.736       3.336       2.944    
        2.490       2.016       1.494       1.120      0.9548      0.7951      0.6192      0.4088      0.1895       0.000    
  29    10.00       9.857       9.715       9.568       9.416       9.300       9.178       9.024       8.877       8.723    
        8.564       8.403       8.212       8.017       7.853       7.700       7.503       7.215       6.908       6.666    
        6.473       6.263       5.976       5.677       5.494       5.390       5.320       5.297       5.299       5.283    
        5.254       5.203       5.113       4.937       4.660       4.388       4.119       3.771       3.327       2.832    
        2.419       1.915       1.396       1.104      0.9579      0.8008      0.6146      0.3994      0.1986       0.000    
  30    10.00       9.836       9.692       9.517       9.363       9.256       9.125       8.990       8.876       8.736    
        8.571       8.394       8.218       8.061       7.913       7.738       7.482       7.213       6.973       6.752    
        6.590       6.388       6.129       5.870       5.652       5.547       5.468       5.410       5.361       5.308    
        5.248       5.183       5.072       4.862       4.627       4.418       4.151       3.703       3.164       2.669    
        2.257       1.799       1.405       1.134      0.9799      0.8028      0.6038      0.4187      0.2053       0.000    
  31    10.00       9.815       9.648       9.480       9.342       9.231       9.106       8.986       8.871       8.732    
        8.566       8.385       8.232       8.098       7.954       7.752       7.498       7.272       7.088       6.899    
        6.730       6.504       6.246       6.028       5.803       5.635       5.544       5.460       5.395       5.319    
        5.242       5.156       5.020       4.831       4.615       4.391       3.982       3.500       3.060       2.583    
        2.195       1.740       1.358       1.163      0.9983      0.8315      0.6244      0.4193      0.1987       0.000    
  32    10.00       9.800       9.621       9.477       9.360       9.249       9.118       8.980       8.839       8.706    
        8.540       8.382       8.243       8.093       7.954       7.778       7.583       7.417       7.230       7.035    
        6.862       6.643       6.388       6.163       5.923       5.696       5.586       5.493       5.403       5.299    
        5.208       5.134       4.966       4.755       4.567       4.270       3.783       3.341       2.962       2.530    
        2.080       1.659       1.380       1.230       1.050      0.8389      0.6198      0.3984      0.1987       0.000    
  33    10.00       9.794       9.640       9.525       9.407       9.276       9.117       8.961       8.809       8.656    
        8.516       8.383       8.244       8.099       7.944       7.807       7.663       7.519       7.362       7.166    
        6.958       6.752       6.544       6.282       5.989       5.739       5.594       5.496       5.385       5.268    
        5.178       5.068       4.894       4.710       4.452       4.058       3.579       3.216       2.857       2.360    
        1.956       1.683       1.461       1.283       1.077      0.8556      0.5871      0.3506      0.1579       0.000    
  34    10.00       9.812       9.686       9.577       9.445       9.283       9.114       8.931       8.761       8.632    
        8.508       8.385       8.259       8.107       7.968       7.833       7.707       7.591       7.436       7.228    
        7.030       6.848       6.639       6.358       6.036       5.758       5.586       5.468       5.356       5.229    
        5.121       5.001       4.845       4.620       4.314       3.842       3.389       3.076       2.659       2.227    
        1.981       1.802       1.588       1.358       1.088      0.7759      0.4744      0.2807      0.1163       0.000    
  35    10.00       9.843       9.729       9.617       9.476       9.293       9.098       8.893       8.732       8.621    
        8.538       8.412       8.268       8.104       7.955       7.857       7.765       7.640       7.474       7.276    
        7.088       6.906       6.707       6.377       6.007       5.743       5.561       5.440       5.315       5.174    
        5.073       4.945       4.766       4.472       4.006       3.534       3.244       2.929       2.511       2.256    
        2.086       1.882       1.667       1.443       1.101      0.6597      0.3642      0.2393      0.1214       0.000    
  36    10.00       9.861       9.762       9.654       9.503       9.284       9.045       8.852       8.737       8.653    
        8.537       8.389       8.254       8.107       7.976       7.879       7.786       7.670       7.537       7.349    
        7.151       6.959       6.700       6.331       5.976       5.714       5.546       5.404       5.244       5.120    
        4.999       4.842       4.557       4.129       3.717       3.410       3.148       2.822       2.497       2.330    
        2.158       1.975       1.758       1.469       1.004      0.5551      0.3419      0.2187      0.1124       0.000    
  37    10.00       9.875       9.798       9.681       9.478       9.238       9.026       8.876       8.781       8.677    
        8.523       8.365       8.247       8.119       7.994       7.898       7.808       7.700       7.555       7.383    
        7.221       7.001       6.664       6.312       5.965       5.670       5.461       5.284       5.135       5.017    
        4.880       4.645       4.225       3.856       3.586       3.327       3.064       2.813       2.585       2.400    
        2.235       2.030       1.783       1.403      0.9189      0.5347      0.3200      0.2033      0.1020       0.000    
  38    10.00       9.893       9.800       9.672       9.460       9.212       9.032       8.921       8.820       8.694    
        8.529       8.363       8.247       8.126       8.000       7.901       7.820       7.722       7.573       7.426    
        7.269       6.993       6.600       6.216       5.854       5.560       5.327       5.133       4.997       4.883    
        4.713       4.327       3.977       3.764       3.506       3.257       3.072       2.867       2.660       2.483    
        2.289       2.010       1.698       1.286      0.8062      0.5118      0.3599      0.2242      0.1006       0.000    
  39    10.00       9.892       9.785       9.651       9.446       9.220       9.058       8.958       8.831       8.690    
        8.555       8.388       8.254       8.137       8.013       7.906       7.812       7.711       7.590       7.454    
        7.251       6.941       6.518       6.082       5.712       5.431       5.165       4.962       4.873       4.755    
        4.464       4.099       3.904       3.665       3.432       3.262       3.114       2.927       2.729       2.565    
        2.283       1.889       1.524       1.081      0.7184      0.5542      0.4124      0.2685      0.1381       0.000    
  40    10.00       9.882       9.788       9.651       9.462       9.272       9.112       8.977       8.827       8.697    
        8.595       8.427       8.256       8.136       8.021       7.895       7.790       7.710       7.600       7.418    
        7.173       6.808       6.377       5.965       5.596       5.298       4.984       4.831       4.750       4.590    
        4.331       4.084       3.824       3.587       3.429       3.287       3.148       2.975       2.793       2.578    
        2.199       1.771       1.376       1.018      0.7704      0.6013      0.4601      0.3247      0.1594       0.000    
  41    10.00       9.898       9.822       9.688       9.492       9.293       9.140       9.017       8.868       8.713    
        8.590       8.431       8.269       8.156       8.019       7.868       7.781       7.690       7.535       7.326    
        7.069       6.709       6.275       5.876       5.504       5.099       4.818       4.743       4.647       4.533    
        4.339       4.042       3.787       3.605       3.453       3.328       3.177       3.013       2.826       2.491    
        2.048       1.633       1.291       1.028      0.8133      0.6564      0.5055      0.3571      0.1880       0.000    
  42    10.00       9.923       9.839       9.709       9.539       9.347       9.172       9.045       8.909       8.733    
        8.572       8.420       8.280       8.170       8.021       7.864       7.753       7.625       7.453       7.213    
        6.914       6.520       6.141       5.739       5.251       4.902       4.769       4.707       4.628       4.509    
        4.283       4.025       3.793       3.612       3.491       3.360       3.227       3.051       2.752       2.308    
        1.923       1.615       1.319       1.022      0.8233      0.6900      0.5453      0.3716      0.2062       0.000    
  43    10.00       9.939       9.848       9.713       9.544       9.383       9.227       9.083       8.910       8.725    
        8.577       8.422       8.282       8.178       8.035       7.852       7.700       7.553       7.320       7.016    
        6.729       6.352       6.006       5.542       5.085       4.863       4.760       4.689       4.616       4.491    
        4.276       4.045       3.824       3.651       3.537       3.408       3.232       2.981       2.545       2.155    
        1.916       1.644       1.332       1.025      0.8146      0.6914      0.5800      0.4017      0.1882       0.000    
  44    10.00       9.931       9.853       9.712       9.557       9.441       9.281       9.082       8.885       8.731    
        8.580       8.422       8.298       8.187       8.016       7.813       7.637       7.462       7.188       6.891    
        6.552       6.181       5.813       5.353       5.015       4.852       4.763       4.703       4.623       4.464    
        4.250       4.065       3.873       3.714       3.596       3.416       3.184       2.825       2.386       2.131    
        1.912       1.628       1.318       1.038      0.8240      0.6930      0.5802      0.3934      0.1733       0.000    
  45    10.00       9.917       9.822       9.708       9.595       9.443       9.272       9.080       8.885       8.728    
        8.570       8.426       8.316       8.184       7.995       7.775       7.578       7.380       7.086       6.740    
        6.354       5.966       5.573       5.239       5.008       4.871       4.784       4.719       4.615       4.487    
        4.303       4.094       3.922       3.758       3.588       3.398       3.145       2.766       2.387       2.089    
        1.841       1.575       1.286       1.036      0.8494      0.7409      0.5725      0.3408      0.1553       0.000    
  46    10.00       9.899       9.801       9.709       9.579       9.404       9.237       9.080       8.886       8.717    
        8.576       8.442       8.330       8.170       7.967       7.770       7.561       7.302       6.987       6.613    
        6.163       5.781       5.470       5.218       5.043       4.921       4.813       4.724       4.642       4.500    
        4.303       4.122       3.952       3.762       3.594       3.416       3.132       2.695       2.300       2.035    
        1.803       1.548       1.278       1.058      0.9142      0.7746      0.5189      0.2551      0.1109       0.000    
  47    10.00       9.892       9.792       9.665       9.513       9.369       9.226       9.055       8.877       8.727    
        8.597       8.477       8.315       8.141       7.959       7.767       7.534       7.234       6.941       6.488    
        6.003       5.707       5.441       5.244       5.080       4.961       4.850       4.742       4.648       4.500    
        4.293       4.115       3.943       3.764       3.620       3.404       3.010       2.620       2.291       2.010    
        1.807       1.567       1.326       1.115      0.9360      0.7103      0.4267      0.2230      9.2888E-02   0.000    
  48    10.00       9.880       9.759       9.623       9.486       9.358       9.213       9.056       8.891       8.743    
        8.611       8.468       8.290       8.111       7.932       7.741       7.517       7.235       6.871       6.423    
        6.007       5.703       5.445       5.264       5.130       4.981       4.869       4.779       4.661       4.459    
        4.258       4.083       3.926       3.795       3.605       3.320       2.947       2.597       2.285       2.039    
        1.820       1.591       1.374       1.135      0.8676      0.5769      0.3646      0.2162      9.7697E-02   0.000    
  49    10.00       9.869       9.737       9.604       9.491       9.359       9.205       9.051       8.918       8.763    
        8.605       8.424       8.249       8.099       7.895       7.709       7.522       7.207       6.848       6.492    
        6.052       5.714       5.457       5.298       5.140       4.979       4.893       4.805       4.614       4.372    
        4.200       4.061       3.949       3.777       3.557       3.304       2.931       2.582       2.338       2.076    
        1.818       1.608       1.377       1.096      0.7680      0.5142      0.3646      0.2353      0.1207       0.000    
  50    10.00       9.874       9.742       9.606       9.483       9.353       9.216       9.064       8.924       8.786    
        8.591       8.402       8.242       8.040       7.833       7.691       7.513       7.269       6.913       6.561    
        6.113       5.687       5.463       5.302       5.137       5.006       4.901       4.783       4.557       4.328    
        4.186       4.072       3.940       3.762       3.559       3.317       2.941       2.583       2.346       2.109    
        1.865       1.600       1.340       1.039      0.7159      0.5262      0.3923      0.2659      0.1604       0.000    

 HEAD WILL BE SAVED ON UNIT   51 AT END OF TIME STEP  14, STRESS PERIOD    2

 DRAWDOWN WILL BE SAVED ON UNIT   52 AT END OF TIME STEP  14, STRESS PERIOD    2
1
  VOLUMETRIC BUDGET FOR ENTIRE MODEL AT END OF TIME STEP 14 IN STRESS PERIOD   2
  ------------------------------------------------------------------------------

     CUMULATIVE VOLUMES      L**3       RATES FOR THIS TIME STEP      L**3/T
     ------------------                 ------------------------

           IN:                                      IN:
           ---                                      ---
             STORAGE =        6999.7246               STORAGE =         499.8954
       CONSTANT HEAD =        5587.1733         CONSTANT HEAD =         372.5641
               WELLS =           0.0000                 WELLS =           0.0000

            TOTAL IN =       12586.8984              TOTAL IN =         872.4596

          OUT:                                     OUT:
          ----                                     ----
             STORAGE =       1.1143E-02               STORAGE =       3.1678E-09
       CONSTANT HEAD =        5586.8843         CONSTANT HEAD =         372.4583
               WELLS =        7000.0000                 WELLS =         500.0000

           TOTAL OUT =       12586.8955             TOTAL OUT =         872.4583

            IN - OUT =       2.9297E-03              IN - OUT =       1.2817E-03

 PERCENT DISCREPANCY =           0.00     PERCENT DISCREPANCY =           0.00






          TIME SUMMARY AT END OF TIME STEP  14 IN STRESS PERIOD    2
                    SECONDS     MINUTES      HOURS       DAYS        YEARS
                    -----------------------------------------------------------
   TIME STEP LENGTH  86400.      1440.0      24.000      1.0000     2.73785E-03
 STRESS PERIOD TIME 1.20960E+06  20160.      336.00      14.000     3.83299E-02
         TOTAL TIME 1.29600E+06  21600.      360.00      15.000     4.10678E-02
1
 
 SOLVING FOR HEAD 

 OUTPUT CONTROL FOR STRESS PERIOD    2   TIME STEP  15
    SAVE HEAD FOR ALL LAYERS
    SAVE DRAWDOWN FOR ALL LAYERS
    SAVE BUDGET
    PRINT HEAD FOR ALL LAYERS
    PRINT BUDGET
 UBDSV1 SAVING "         STORAGE" ON UNIT  53 AT TIME STEP 15, STRESS PERIOD   2
 UBDSV2 SAVING "   CONSTANT HEAD" ON UNIT  53 AT TIME STEP 15, STRESS PERIOD   2
 UBDSV1 SAVING "FLOW RIGHT FACE " ON UNIT  53 AT TIME STEP 15, STRESS PERIOD   2
 UBDSV1 SAVING "FLOW FRONT FACE " ON UNIT  53 AT TIME STEP 15, STRESS PERIOD   2
1
              HEAD IN LAYER   1 AT END OF TIME STEP  15 IN STRESS PERIOD    2
  ---------------------------------------------------------------------------

            1           2           3           4           5           6           7           8           9          10
           11          12          13          14          15          16          17          18          19          20
           21          22          23          24          25          26          27          28          29          30
           31          32          33          34          35          36          37          38          39          40
           41          42          43          44          45          46          47          48          49          50
 ........................................................................................................................
   1    10.00       9.953       9.906       9.851       9.808       9.771       9.722       9.655       9.581       9.513    
        9.362       9.174       9.035       8.881       8.716       8.549       8.395       8.217       7.979       7.743    
        7.582       7.397       7.153       6.907       6.687       6.495       6.221       5.972       5.797       5.611    
        5.450       5.344       5.227       5.093       4.964       4.804       4.632       4.400       4.135       3.846    
        3.475       3.099       2.607       2.072       1.670       1.381       1.165      0.9189      0.5394       0.000    
   2    10.00       9.948       9.898       9.852       9.815       9.779       9.725       9.656       9.588       9.496    
        9.349       9.181       9.025       8.884       8.732       8.561       8.377       8.195       7.973       7.735    
        7.559       7.408       7.149       6.883       6.687       6.470       6.208       5.969       5.769       5.594    
        5.457       5.358       5.258       5.114       4.963       4.804       4.607       4.391       4.134       3.805    
        3.457       3.137       2.620       2.088       1.732       1.474       1.225      0.9490      0.5728       0.000    
   3    10.00       9.940       9.898       9.866       9.831       9.794       9.735       9.653       9.571       9.471    
        9.338       9.189       9.039       8.897       8.716       8.502       8.324       8.166       7.963       7.754    
        7.573       7.359       7.105       6.871       6.659       6.417       6.168       5.934       5.727       5.595    
        5.480       5.383       5.282       5.123       4.965       4.797       4.601       4.360       4.073       3.821    
        3.511       3.074       2.570       2.187       1.883       1.582       1.276      0.9618      0.5428       0.000    
   4    10.00       9.940       9.903       9.874       9.850       9.811       9.744       9.649       9.552       9.453    
        9.326       9.192       9.042       8.865       8.644       8.445       8.318       8.140       7.944       7.781    
        7.537       7.268       7.045       6.838       6.633       6.347       6.072       5.887       5.741       5.624    
        5.518       5.416       5.308       5.124       4.928       4.777       4.571       4.321       4.075       3.851    
        3.500       3.016       2.635       2.311       1.984       1.642       1.273      0.9056      0.4639       0.000    
   5    10.00       9.945       9.911       9.882       9.860       9.820       9.749       9.642       9.533       9.434    
        9.327       9.190       8.998       8.791       8.605       8.448       8.290       8.125       7.942       7.715    
        7.434       7.212       7.027       6.817       6.558       6.264       6.036       5.901       5.780       5.663    
        5.542       5.418       5.295       5.120       4.921       4.737       4.552       4.352       4.125       3.829    
        3.430       3.060       2.732       2.404       2.046       1.648       1.184      0.7629      0.3950       0.000    
   6    10.00       9.954       9.921       9.893       9.863       9.819       9.743       9.628       9.533       9.428    
        9.308       9.139       8.931       8.759       8.588       8.411       8.251       8.104       7.900       7.645    
        7.397       7.185       6.998       6.741       6.462       6.237       6.051       5.922       5.793       5.673    
        5.565       5.428       5.272       5.092       4.900       4.740       4.576       4.393       4.153       3.832    
        3.480       3.121       2.784       2.453       2.064       1.582       1.082      0.7177      0.3694       0.000    
   7    10.00       9.960       9.931       9.902       9.870       9.817       9.716       9.605       9.507       9.378    
        9.255       9.077       8.889       8.714       8.540       8.363       8.207       8.074       7.843       7.572    
        7.351       7.139       6.932       6.683       6.445       6.238       6.073       5.928       5.792       5.691    
        5.581       5.433       5.266       5.079       4.909       4.767       4.616       4.424       4.175       3.880    
        3.527       3.156       2.806       2.440       2.055       1.549       1.036      0.6838      0.3235       0.000    
   8    10.00       9.967       9.941       9.909       9.872       9.787       9.665       9.560       9.439       9.316    
        9.182       9.001       8.843       8.667       8.474       8.304       8.170       8.014       7.800       7.539    
        7.286       7.091       6.919       6.668       6.425       6.240       6.056       5.903       5.804       5.709    
        5.579       5.431       5.287       5.117       4.933       4.781       4.664       4.515       4.265       3.921    
        3.533       3.202       2.873       2.445       2.015       1.450      0.9598      0.6700      0.3100       0.000    
   9    10.00       9.974       9.945       9.909       9.847       9.736       9.607       9.486       9.380       9.253    
        9.096       8.937       8.781       8.614       8.418       8.258       8.135       7.955       7.747       7.488    
        7.266       7.076       6.844       6.595       6.390       6.226       6.039       5.902       5.805       5.700    
        5.579       5.443       5.306       5.155       4.994       4.842       4.715       4.579       4.318       3.944    
        3.584       3.285       2.937       2.522       1.886       1.248      0.9145      0.5667      0.2162       0.000    
  10    10.00       9.974       9.944       9.894       9.799       9.668       9.526       9.432       9.332       9.185    
        9.048       8.891       8.737       8.560       8.381       8.239       8.077       7.892       7.677       7.469    
        7.254       6.976       6.741       6.543       6.366       6.220       6.048       5.902       5.807       5.711    
        5.580       5.433       5.308       5.167       5.022       4.913       4.783       4.623       4.323       3.949    
        3.663       3.398       2.995       2.371       1.635       1.173      0.8303      0.5068      0.2528       0.000    
  11    10.00       9.974       9.935       9.857       9.751       9.605       9.480       9.402       9.283       9.158    
        9.028       8.865       8.682       8.494       8.346       8.196       8.048       7.852       7.647       7.444    
        7.154       6.887       6.695       6.514       6.343       6.184       6.026       5.905       5.819       5.726    
        5.579       5.437       5.327       5.197       5.071       4.947       4.799       4.624       4.340       4.036    
        3.732       3.385       2.947       2.259       1.569       1.103      0.7784      0.5903      0.3260       0.000    
  12    10.00       9.973       9.917       9.818       9.680       9.536       9.438       9.360       9.258       9.145    
        9.003       8.832       8.651       8.483       8.332       8.169       8.001       7.806       7.602       7.338    
        7.058       6.852       6.665       6.482       6.297       6.137       6.019       5.919       5.814       5.703    
        5.573       5.457       5.357       5.247       5.131       5.005       4.840       4.622       4.356       4.078    
        3.751       3.372       2.773       2.000       1.415       1.087      0.8646      0.6266      0.3570       0.000    
  13    10.00       9.964       9.878       9.743       9.600       9.478       9.399       9.331       9.245       9.137    
        8.990       8.813       8.647       8.513       8.339       8.140       7.946       7.737       7.516       7.264    
        7.019       6.800       6.602       6.417       6.242       6.119       6.029       5.906       5.772       5.673    
        5.582       5.483       5.389       5.290       5.179       5.064       4.909       4.655       4.375       4.045    
        3.670       3.194       2.502       1.876       1.449       1.169      0.9092      0.6282      0.3103       0.000    
  14    10.00       9.934       9.812       9.664       9.533       9.438       9.385       9.324       9.241       9.125    
        8.964       8.814       8.677       8.539       8.347       8.115       7.908       7.675       7.429       7.173    
        6.938       6.724       6.526       6.345       6.200       6.115       6.012       5.868       5.749       5.666    
        5.594       5.501       5.416       5.319       5.215       5.118       4.936       4.673       4.374       3.962    
        3.520       2.962       2.429       1.970       1.544       1.214      0.9254      0.6289      0.2800       0.000    
  15    10.00       9.877       9.743       9.612       9.507       9.434       9.377       9.320       9.239       9.132    
        8.991       8.846       8.714       8.524       8.307       8.089       7.856       7.618       7.331       7.057    
        6.842       6.637       6.448       6.300       6.186       6.089       5.976       5.836       5.735       5.668    
        5.592       5.510       5.439       5.348       5.244       5.138       4.945       4.691       4.316       3.871    
        3.413       2.908       2.473       1.998       1.638       1.286      0.9368      0.6227      0.2553       0.000    
  16    10.00       9.858       9.713       9.593       9.504       9.438       9.379       9.327       9.250       9.140    
        9.010       8.873       8.716       8.486       8.254       8.075       7.851       7.535       7.211       6.954    
        6.727       6.551       6.399       6.267       6.143       6.052       5.930       5.810       5.722       5.648    
        5.587       5.523       5.442       5.359       5.265       5.143       4.963       4.656       4.245       3.836    
        3.440       2.949       2.457       2.038       1.698       1.328      0.9336      0.5578      0.2099       0.000    
  17    10.00       9.840       9.695       9.599       9.520       9.453       9.395       9.336       9.254       9.153    
        9.034       8.867       8.659       8.417       8.223       8.057       7.797       7.451       7.117       6.866    
        6.675       6.479       6.311       6.183       6.075       5.968       5.856       5.770       5.691       5.630    
        5.589       5.528       5.439       5.352       5.257       5.126       4.914       4.646       4.306       3.870    
        3.412       2.893       2.437       2.065       1.717       1.338      0.9533      0.5810      0.2455       0.000    
  18    10.00       9.831       9.695       9.613       9.542       9.478       9.421       9.350       9.269       9.162    
        9.021       8.829       8.601       8.397       8.209       7.976       7.680       7.369       7.074       6.826    
        6.594       6.343       6.192       6.084       5.988       5.872       5.791       5.716       5.660       5.623    
        5.583       5.524       5.431       5.331       5.230       5.087       4.877       4.653       4.353       3.945    
        3.347       2.792       2.420       2.066       1.770       1.371      0.9473      0.5693      0.2451       0.000    
  19    10.00       9.839       9.726       9.641       9.566       9.501       9.435       9.369       9.295       9.172    
        9.008       8.804       8.580       8.357       8.117       7.869       7.595       7.296       7.003       6.739    
        6.472       6.241       6.116       6.025       5.901       5.793       5.723       5.659       5.632       5.607    
        5.572       5.511       5.406       5.302       5.209       5.091       4.883       4.632       4.327       3.848    
        3.247       2.776       2.405       2.057       1.725       1.314      0.9093      0.5655      0.2664       0.000    
  20    10.00       9.848       9.752       9.678       9.605       9.528       9.450       9.379       9.305       9.181    
        9.004       8.794       8.536       8.251       7.980       7.779       7.506       7.183       6.922       6.657    
        6.416       6.220       6.067       5.936       5.783       5.703       5.649       5.609       5.596       5.581    
        5.558       5.485       5.377       5.296       5.201       5.071       4.834       4.577       4.230       3.697    
        3.179       2.802       2.372       1.976       1.616       1.212      0.9116      0.5613      0.2488       0.000    
  21    10.00       9.871       9.784       9.709       9.629       9.557       9.470       9.393       9.313       9.175    
        8.985       8.732       8.417       8.089       7.837       7.653       7.398       7.159       6.912       6.626    
        6.393       6.180       5.990       5.750       5.619       5.574       5.511       5.524       5.541       5.531    
        5.509       5.444       5.367       5.296       5.196       5.007       4.764       4.538       4.035       3.487    
        3.104       2.700       2.264       1.897       1.516       1.163      0.8252      0.4944      0.2483       0.000    
  22    10.00       9.899       9.808       9.727       9.649       9.580       9.482       9.384       9.291       9.150    
        8.922       8.608       8.257       7.951       7.735       7.542       7.345       7.172       6.905       6.626    
        6.383       6.084       5.751       5.489       5.388       5.292       5.297       5.380       5.413       5.426    
        5.426       5.391       5.350       5.292       5.184       4.966       4.706       4.300       3.742       3.396    
        2.987       2.555       2.165       1.813       1.489       1.070      0.7159      0.4740      0.2664       0.000    
  23    10.00       9.900       9.813       9.739       9.658       9.567       9.456       9.368       9.287       9.110    
        8.832       8.498       8.179       7.913       7.692       7.529       7.344       7.119       6.863       6.640    
        6.307       5.869       5.508       5.237       4.846       4.848       5.048       5.167       5.248       5.315    
        5.337       5.337       5.329       5.278       5.150       4.909       4.530       4.066       3.616       3.198    
        2.815       2.459       2.086       1.807       1.397      0.9724      0.6963      0.4558      0.2366       0.000    
  24    10.00       9.922       9.823       9.727       9.633       9.529       9.430       9.354       9.264       9.056    
        8.741       8.426       8.164       7.933       7.724       7.513       7.286       7.080       6.876       6.615    
        6.216       5.781       5.351       4.550       3.682       4.192       4.678       4.958       5.106       5.220    
        5.269       5.291       5.295       5.228       5.090       4.791       4.368       3.977       3.480       3.037    
        2.739       2.398       2.044       1.689       1.250      0.9021      0.6698      0.4269      0.1883       0.000    
  25    10.00       9.915       9.800       9.683       9.573       9.479       9.404       9.328       9.217       9.001    
        8.670       8.378       8.178       7.965       7.724       7.506       7.294       7.116       6.929       6.599    
        6.141       5.708       5.019       3.706      0.9300       3.612       4.383       4.824       5.046       5.166    
        5.228       5.258       5.247       5.163       5.015       4.700       4.251       3.802       3.398       3.016    
        2.673       2.304       1.902       1.528       1.112      0.8285      0.6672      0.4151      0.1538       0.000    
  26    10.00       9.893       9.746       9.614       9.526       9.451       9.376       9.283       9.151       8.883    
        8.577       8.374       8.183       7.971       7.747       7.538       7.341       7.167       6.936       6.586    
        6.184       5.708       5.107       4.403       3.749       4.101       4.558       4.865       5.044       5.151    
        5.207       5.228       5.195       5.100       4.926       4.579       4.100       3.737       3.405       2.991    
        2.631       2.212       1.752       1.351       1.011      0.8111      0.6313      0.3701      0.1575       0.000    
  27    10.00       9.870       9.713       9.590       9.516       9.417       9.319       9.201       9.025       8.772    
        8.556       8.376       8.182       7.973       7.753       7.587       7.454       7.224       6.934       6.576    
        6.231       5.892       5.418       4.964       4.602       4.664       4.837       4.982       5.090       5.159    
        5.206       5.207       5.161       5.043       4.832       4.457       4.082       3.759       3.374       2.983    
        2.609       2.103       1.578       1.202      0.9653      0.7981      0.6005      0.3914      0.1887       0.000    
  28    10.00       9.853       9.738       9.600       9.473       9.352       9.244       9.105       8.930       8.734    
        8.556       8.393       8.199       7.966       7.770       7.639       7.490       7.232       6.890       6.570    
        6.332       6.085       5.723       5.379       5.156       5.082       5.074       5.112       5.169       5.208    
        5.217       5.196       5.131       4.985       4.731       4.403       4.108       3.734       3.335       2.943    
        2.490       2.015       1.494       1.120      0.9548      0.7951      0.6192      0.4088      0.1895       0.000    
  29    10.00       9.857       9.714       9.568       9.416       9.300       9.177       9.024       8.876       8.721    
        8.561       8.399       8.207       8.009       7.842       7.687       7.486       7.194       6.882       6.636    
        6.439       6.227       5.937       5.636       5.452       5.349       5.279       5.258       5.263       5.251    
        5.225       5.178       5.092       4.921       4.650       4.381       4.115       3.769       3.326       2.832    
        2.418       1.915       1.396       1.104      0.9579      0.8008      0.6146      0.3994      0.1986       0.000    
  30    10.00       9.836       9.692       9.517       9.363       9.256       9.125       8.989       8.875       8.734    
        8.568       8.390       8.213       8.054       7.904       7.727       7.466       7.193       6.948       6.723    
        6.559       6.354       6.093       5.832       5.612       5.509       5.432       5.377       5.330       5.280    
        5.222       5.160       5.053       4.849       4.618       4.411       4.146       3.701       3.163       2.669    
        2.257       1.799       1.405       1.134      0.9799      0.8028      0.6038      0.4187      0.2053       0.000    
  31    10.00       9.815       9.648       9.480       9.342       9.230       9.106       8.985       8.870       8.730    
        8.564       8.381       8.227       8.092       7.947       7.742       7.484       7.253       7.067       6.873    
        6.702       6.473       6.213       5.994       5.768       5.601       5.512       5.431       5.367       5.293    
        5.220       5.136       5.003       4.818       4.607       4.385       3.979       3.498       3.059       2.582    
        2.195       1.740       1.358       1.163      0.9983      0.8315      0.6244      0.4193      0.1987       0.000    
  32    10.00       9.800       9.621       9.477       9.360       9.248       9.117       8.979       8.838       8.705    
        8.538       8.379       8.239       8.088       7.948       7.770       7.572       7.402       7.213       7.014    
        6.839       6.618       6.361       6.134       5.893       5.667       5.559       5.467       5.379       5.277    
        5.189       5.116       4.952       4.745       4.560       4.265       3.781       3.340       2.961       2.529    
        2.080       1.659       1.380       1.230       1.050      0.8389      0.6198      0.3984      0.1987       0.000    
  33    10.00       9.794       9.640       9.525       9.407       9.276       9.116       8.961       8.808       8.654    
        8.514       8.380       8.240       8.094       7.938       7.799       7.653       7.507       7.348       7.150    
        6.940       6.732       6.523       6.258       5.965       5.715       5.571       5.474       5.365       5.250    
        5.161       5.054       4.883       4.701       4.445       4.055       3.577       3.215       2.857       2.360    
        1.956       1.683       1.461       1.283       1.077      0.8556      0.5871      0.3506      0.1579       0.000    
  34    10.00       9.812       9.686       9.577       9.445       9.283       9.114       8.930       8.760       8.630    
        8.506       8.382       8.255       8.102       7.963       7.827       7.699       7.582       7.425       7.215    
        7.016       6.832       6.621       6.340       6.017       5.739       5.567       5.450       5.339       5.214    
        5.107       4.989       4.835       4.612       4.309       3.839       3.388       3.075       2.658       2.227    
        1.981       1.802       1.588       1.358       1.088      0.7759      0.4744      0.2807      0.1163       0.000    
  35    10.00       9.843       9.729       9.617       9.476       9.292       9.098       8.892       8.731       8.620    
        8.536       8.410       8.266       8.100       7.950       7.852       7.758       7.633       7.465       7.266    
        7.077       6.893       6.693       6.363       5.993       5.728       5.545       5.425       5.302       5.162    
        5.061       4.934       4.757       4.466       4.003       3.533       3.244       2.928       2.511       2.256    
        2.086       1.882       1.667       1.443       1.101      0.6597      0.3642      0.2393      0.1214       0.000    
  36    10.00       9.861       9.761       9.654       9.502       9.283       9.044       8.852       8.736       8.652    
        8.535       8.387       8.252       8.104       7.972       7.874       7.781       7.664       7.531       7.342    
        7.142       6.949       6.690       6.321       5.965       5.702       5.533       5.392       5.233       5.110    
        4.989       4.834       4.551       4.125       3.716       3.409       3.147       2.821       2.496       2.330    
        2.158       1.975       1.758       1.469       1.004      0.5551      0.3419      0.2187      0.1124       0.000    
  37    10.00       9.875       9.798       9.681       9.478       9.237       9.026       8.876       8.780       8.676    
        8.522       8.364       8.245       8.116       7.991       7.894       7.804       7.696       7.550       7.378    
        7.215       6.994       6.657       6.305       5.958       5.662       5.453       5.275       5.127       5.009    
        4.872       4.639       4.222       3.854       3.585       3.327       3.064       2.813       2.585       2.400    
        2.235       2.030       1.783       1.403      0.9189      0.5347      0.3200      0.2033      0.1020       0.000    
  38    10.00       9.893       9.800       9.672       9.460       9.211       9.032       8.920       8.819       8.693    
        8.528       8.362       8.245       8.124       7.997       7.898       7.817       7.719       7.570       7.422    
        7.264       6.989       6.596       6.212       5.850       5.555       5.322       5.127       4.992       4.878    
        4.708       4.324       3.975       3.762       3.505       3.257       3.072       2.866       2.659       2.483    
        2.289       2.010       1.698       1.286      0.8062      0.5118      0.3599      0.2242      0.1006       0.000    
  39    10.00       9.892       9.785       9.650       9.445       9.220       9.058       8.957       8.830       8.689    
        8.554       8.386       8.252       8.135       8.011       7.904       7.810       7.708       7.587       7.451    
        7.248       6.939       6.516       6.080       5.709       5.429       5.162       4.959       4.870       4.752    
        4.462       4.097       3.903       3.664       3.431       3.262       3.114       2.927       2.729       2.564    
        2.283       1.889       1.524       1.081      0.7184      0.5542      0.4124      0.2685      0.1381       0.000    
  40    10.00       9.882       9.788       9.651       9.462       9.271       9.112       8.977       8.826       8.697    
        8.594       8.426       8.255       8.134       8.019       7.894       7.788       7.708       7.598       7.416    
        7.172       6.807       6.376       5.963       5.595       5.297       4.983       4.829       4.748       4.588    
        4.330       4.083       3.824       3.586       3.429       3.287       3.147       2.975       2.793       2.578    
        2.199       1.771       1.376       1.018      0.7704      0.6013      0.4601      0.3247      0.1594       0.000    
  41    10.00       9.898       9.822       9.688       9.492       9.293       9.139       9.017       8.868       8.713    
        8.589       8.430       8.269       8.155       8.018       7.867       7.779       7.688       7.533       7.325    
        7.068       6.709       6.275       5.875       5.504       5.099       4.817       4.742       4.646       4.532    
        4.339       4.041       3.786       3.605       3.452       3.328       3.176       3.013       2.826       2.491    
        2.048       1.633       1.291       1.028      0.8133      0.6564      0.5055      0.3571      0.1880       0.000    
  42    10.00       9.923       9.839       9.709       9.539       9.347       9.172       9.045       8.909       8.733    
        8.572       8.419       8.279       8.169       8.020       7.863       7.752       7.624       7.452       7.212    
        6.914       6.520       6.140       5.739       5.250       4.902       4.768       4.706       4.627       4.509    
        4.282       4.024       3.792       3.612       3.491       3.360       3.226       3.051       2.752       2.308    
        1.923       1.615       1.319       1.022      0.8233      0.6900      0.5453      0.3716      0.2062       0.000    
  43    10.00       9.939       9.848       9.713       9.544       9.383       9.227       9.083       8.910       8.725    
        8.577       8.421       8.281       8.178       8.035       7.851       7.699       7.552       7.319       7.016    
        6.729       6.352       6.006       5.542       5.085       4.863       4.760       4.688       4.615       4.490    
        4.276       4.044       3.824       3.651       3.537       3.407       3.232       2.981       2.545       2.155    
        1.916       1.644       1.332       1.025      0.8146      0.6914      0.5800      0.4017      0.1882       0.000    
  44    10.00       9.931       9.853       9.712       9.557       9.441       9.281       9.082       8.885       8.731    
        8.580       8.421       8.298       8.186       8.016       7.813       7.637       7.462       7.188       6.891    
        6.552       6.181       5.813       5.353       5.015       4.852       4.763       4.703       4.623       4.464    
        4.250       4.065       3.873       3.714       3.596       3.416       3.184       2.825       2.386       2.131    
        1.912       1.628       1.318       1.038      0.8240      0.6930      0.5802      0.3934      0.1733       0.000    
  45    10.00       9.917       9.822       9.708       9.595       9.443       9.272       9.080       8.885       8.728    
        8.570       8.426       8.316       8.184       7.995       7.775       7.578       7.380       7.086       6.740    
        6.354       5.966       5.573       5.239       5.008       4.871       4.784       4.719       4.615       4.487    
        4.303       4.094       3.922       3.758       3.588       3.398       3.145       2.766       2.387       2.089    
        1.841       1.575       1.286       1.036      0.8494      0.7409      0.5725      0.3408      0.1553       0.000    
  46    10.00       9.899       9.801       9.709       9.579       9.404       9.237       9.080       8.886       8.717    
        8.576       8.442       8.330       8.170       7.967       7.770       7.560       7.302       6.987       6.613    
        6.163       5.781       5.470       5.218       5.043       4.921       4.813       4.724       4.642       4.499    
        4.303       4.122       3.952       3.762       3.594       3.416       3.132       2.695       2.300       2.035    
        1.803       1.548       1.278       1.058      0.9142      0.7746      0.5189      0.2551      0.1109       0.000    
  47    10.00       9.892       9.792       9.665       9.513       9.369       9.226       9.055       8.877       8.727    
        8.597       8.477       8.315       8.141       7.959       7.767       7.534       7.234       6.941       6.488    
        6.003       5.707       5.441       5.244       5.080       4.961       4.850       4.742       4.648       4.500    
        4.293       4.115       3.943       3.763       3.620       3.404       3.010       2.620       2.291       2.010    
        1.807       1.567       1.326       1.115      0.9360      0.7103      0.4267      0.2230      9.2888E-02   0.000    
  48    10.00       9.880       9.759       9.623       9.486       9.358       9.213       9.056       8.891       8.743    
        8.611       8.468       8.290       8.111       7.932       7.741       7.517       7.235       6.871       6.423    
        6.007       5.703       5.445       5.264       5.130       4.981       4.869       4.779       4.661       4.459    
        4.258       4.083       3.926       3.795       3.605       3.320       2.947       2.597       2.285       2.039    
        1.820       1.591       1.374       1.135      0.8676      0.5769      0.3646      0.2162      9.7697E-02   0.000    
  49    10.00       9.869       9.737       9.604       9.491       9.359       9.205       9.051       8.918       8.763    
        8.605       8.424       8.249       8.099       7.895       7.709       7.522       7.207       6.848       6.492    
        6.052       5.714       5.457       5.298       5.140       4.979       4.892       4.805       4.614       4.372    
        4.200       4.061       3.949       3.777       3.557       3.304       2.931       2.582       2.338       2.076    
        1.818       1.608       1.377       1.096      0.7680      0.5142      0.3646      0.2353      0.1207       0.000    
  50    10.00       9.874       9.742       9.606       9.483       9.353       9.216       9.064       8.924       8.786    
        8.591       8.402       8.242       8.040       7.833       7.691       7.513       7.269       6.913       6.561    
        6.113       5.687       5.463       5.302       5.137       5.006       4.901       4.783       4.557       4.328    
        4.186       4.072       3.940       3.762       3.559       3.317       2.941       2.583       2.346       2.109    
        1.865       1.600       1.340       1.039      0.7159      0.5262      0.3923      0.2659      0.1604       0.000    

 HEAD WILL BE SAVED ON UNIT   51 AT END OF TIME STEP  15, STRESS PERIOD    2

 DRAWDOWN WILL BE SAVED ON UNIT   52 AT END OF TIME STEP  15, STRESS PERIOD    2
1
  VOLUMETRIC BUDGET FOR ENTIRE MODEL AT END OF TIME STEP 15 IN STRESS PERIOD   2
  ------------------------------------------------------------------------------

     CUMULATIVE VOLUMES      L**3       RATES FOR THIS TIME STEP      L**3/T
     ------------------                 ------------------------

           IN:                                      IN:
           ---                                      ---
             STORAGE =        7499.5728               STORAGE =         499.8481
       CONSTANT HEAD =        5959.7822         CONSTANT HEAD =         372.6089
               WELLS =           0.0000                 WELLS =           0.0000

            TOTAL IN =       13459.3555              TOTAL IN =         872.4571

          OUT:                                     OUT:
          ----                                     ----
             STORAGE =       1.1143E-02               STORAGE =           0.0000
       CONSTANT HEAD =        5959.3423         CONSTANT HEAD =         372.4578
               WELLS =        7500.0000                 WELLS =         500.0000

           TOTAL OUT =       13459.3535             TOTAL OUT =         872.4578

            IN - OUT =       1.9531E-03              IN - OUT =      -6.7139E-04

 PERCENT DISCREPANCY =           0.00     PERCENT DISCREPANCY =           0.00






          TIME SUMMARY AT END OF TIME STEP  15 IN STRESS PERIOD    2
                    SECONDS     MINUTES      HOURS       DAYS        YEARS
                    -----------------------------------------------------------
   TIME STEP LENGTH  86400.      1440.0      24.000      1.0000     2.73785E-03
 STRESS PERIOD TIME 1.29600E+06  21600.      360.00      15.000     4.10678E-02
         TOTAL TIME 1.38240E+06  23040.      384.00      16.000     4.38056E-02
1
 
 SOLVING FOR HEAD 

 OUTPUT CONTROL FOR STRESS PERIOD    2   TIME STEP  16
    SAVE HEAD FOR ALL LAYERS
    SAVE DRAWDOWN FOR ALL LAYERS
    SAVE BUDGET
    PRINT HEAD FOR ALL LAYERS
    PRINT BUDGET
 UBDSV1 SAVING "         STORAGE" ON UNIT  53 AT TIME STEP 16, STRESS PERIOD   2
 UBDSV2 SAVING "   CONSTANT HEAD" ON UNIT  53 AT TIME STEP 16, STRESS PERIOD   2
 UBDSV1 SAVING "FLOW RIGHT FACE " ON UNIT  53 AT TIME STEP 16, STRESS PERIOD   2
 UBDSV1 SAVING "FLOW FRONT FACE " ON UNIT  53 AT TIME STEP 16, STRESS PERIOD   2
1
              HEAD IN LAYER   1 AT END OF TIME STEP  16 IN STRESS PERIOD    2
  ---------------------------------------------------------------------------

            1           2           3           4           5           6           7           8           9          10
           11          12          13          14          15          16          17          18          19          20
           21          22          23          24          25          26          27          28          29          30
           31          32          33          34          35          36          37          38          39          40
           41          42          43          44          45          46          47          48          49          50
 ........................................................................................................................
   1    10.00       9.953       9.906       9.851       9.808       9.771       9.722       9.655       9.581       9.513    
        9.362       9.174       9.035       8.881       8.716       8.549       8.395       8.217       7.979       7.743    
        7.582       7.397       7.153       6.907       6.687       6.495       6.221       5.972       5.796       5.611    
        5.450       5.344       5.227       5.092       4.964       4.804       4.632       4.400       4.135       3.846    
        3.475       3.099       2.607       2.072       1.670       1.381       1.165      0.9189      0.5394       0.000    
   2    10.00       9.948       9.898       9.852       9.815       9.779       9.725       9.656       9.588       9.496    
        9.349       9.181       9.025       8.884       8.732       8.560       8.377       8.195       7.973       7.735    
        7.559       7.408       7.149       6.883       6.687       6.470       6.207       5.969       5.768       5.593    
        5.456       5.358       5.258       5.113       4.963       4.804       4.607       4.390       4.134       3.805    
        3.457       3.137       2.620       2.088       1.732       1.474       1.225      0.9490      0.5728       0.000    
   3    10.00       9.940       9.898       9.866       9.831       9.794       9.735       9.653       9.571       9.471    
        9.338       9.189       9.039       8.897       8.716       8.502       8.324       8.166       7.963       7.754    
        7.573       7.359       7.105       6.871       6.659       6.417       6.168       5.934       5.726       5.594    
        5.479       5.382       5.282       5.123       4.965       4.796       4.601       4.359       4.073       3.821    
        3.511       3.074       2.570       2.187       1.883       1.582       1.276      0.9618      0.5428       0.000    
   4    10.00       9.940       9.903       9.874       9.850       9.811       9.744       9.649       9.552       9.453    
        9.326       9.192       9.042       8.864       8.644       8.445       8.318       8.140       7.944       7.781    
        7.537       7.267       7.045       6.837       6.633       6.346       6.071       5.886       5.740       5.623    
        5.518       5.416       5.307       5.123       4.928       4.777       4.571       4.321       4.075       3.851    
        3.500       3.016       2.635       2.311       1.984       1.642       1.273      0.9056      0.4639       0.000    
   5    10.00       9.945       9.911       9.882       9.860       9.820       9.749       9.642       9.533       9.434    
        9.327       9.190       8.998       8.791       8.605       8.448       8.290       8.125       7.941       7.714    
        7.434       7.211       7.027       6.816       6.558       6.263       6.035       5.900       5.779       5.662    
        5.541       5.417       5.294       5.119       4.920       4.736       4.551       4.352       4.125       3.828    
        3.430       3.060       2.731       2.404       2.046       1.648       1.184      0.7629      0.3950       0.000    
   6    10.00       9.954       9.921       9.893       9.863       9.819       9.743       9.628       9.533       9.427    
        9.308       9.139       8.930       8.759       8.588       8.410       8.251       8.104       7.900       7.645    
        7.397       7.184       6.997       6.741       6.461       6.236       6.049       5.921       5.792       5.672    
        5.564       5.427       5.271       5.091       4.899       4.740       4.575       4.393       4.152       3.832    
        3.480       3.121       2.784       2.453       2.064       1.582       1.082      0.7177      0.3694       0.000    
   7    10.00       9.960       9.931       9.902       9.870       9.817       9.716       9.605       9.507       9.378    
        9.255       9.077       8.889       8.714       8.540       8.362       8.207       8.074       7.843       7.572    
        7.350       7.138       6.930       6.682       6.444       6.236       6.071       5.926       5.790       5.690    
        5.579       5.431       5.264       5.078       4.908       4.766       4.615       4.424       4.174       3.879    
        3.527       3.156       2.806       2.440       2.055       1.549       1.036      0.6838      0.3235       0.000    
   8    10.00       9.967       9.941       9.909       9.872       9.787       9.665       9.560       9.439       9.316    
        9.182       9.001       8.843       8.666       8.473       8.303       8.169       8.013       7.800       7.538    
        7.284       7.089       6.918       6.666       6.423       6.237       6.053       5.900       5.801       5.706    
        5.576       5.428       5.285       5.115       4.931       4.780       4.663       4.514       4.264       3.921    
        3.533       3.202       2.872       2.445       2.015       1.450      0.9597      0.6700      0.3100       0.000    
   9    10.00       9.974       9.945       9.909       9.847       9.736       9.607       9.486       9.379       9.253    
        9.096       8.937       8.781       8.614       8.417       8.258       8.134       7.954       7.746       7.487    
        7.264       7.074       6.841       6.591       6.386       6.222       6.034       5.898       5.801       5.695    
        5.575       5.439       5.302       5.152       4.992       4.840       4.713       4.577       4.317       3.943    
        3.584       3.285       2.936       2.522       1.886       1.248      0.9145      0.5667      0.2162       0.000    
  10    10.00       9.974       9.944       9.894       9.799       9.668       9.526       9.432       9.332       9.185    
        9.048       8.891       8.737       8.559       8.380       8.238       8.076       7.890       7.675       7.466    
        7.251       6.972       6.736       6.538       6.360       6.214       6.042       5.897       5.802       5.706    
        5.575       5.428       5.304       5.163       5.019       4.910       4.780       4.621       4.321       3.948    
        3.663       3.397       2.995       2.371       1.635       1.173      0.8303      0.5068      0.2528       0.000    
  11    10.00       9.974       9.935       9.857       9.751       9.605       9.480       9.402       9.283       9.158    
        9.028       8.864       8.682       8.494       8.345       8.195       8.047       7.850       7.644       7.440    
        7.150       6.881       6.689       6.508       6.336       6.177       6.018       5.897       5.812       5.719    
        5.573       5.432       5.322       5.192       5.067       4.944       4.796       4.622       4.339       4.035    
        3.731       3.385       2.947       2.259       1.569       1.103      0.7784      0.5903      0.3260       0.000    
  12    10.00       9.973       9.917       9.818       9.680       9.536       9.438       9.360       9.257       9.144    
        9.003       8.831       8.650       8.483       8.331       8.167       7.999       7.804       7.598       7.334    
        7.051       6.845       6.657       6.474       6.288       6.128       6.010       5.911       5.805       5.694    
        5.565       5.450       5.351       5.241       5.126       5.001       4.837       4.620       4.354       4.077    
        3.750       3.372       2.773       2.000       1.415       1.087      0.8646      0.6266      0.3570       0.000    
  13    10.00       9.964       9.878       9.743       9.600       9.478       9.399       9.331       9.244       9.137    
        8.989       8.812       8.646       8.512       8.337       8.138       7.943       7.734       7.511       7.257    
        7.011       6.791       6.591       6.406       6.230       6.107       6.018       5.895       5.762       5.663    
        5.572       5.474       5.381       5.283       5.173       5.059       4.905       4.653       4.374       4.044    
        3.669       3.194       2.502       1.876       1.449       1.169      0.9092      0.6282      0.3103       0.000    
  14    10.00       9.934       9.812       9.664       9.533       9.437       9.385       9.323       9.241       9.125    
        8.963       8.814       8.677       8.538       8.346       8.113       7.904       7.670       7.423       7.165    
        6.928       6.713       6.513       6.331       6.186       6.101       5.999       5.855       5.737       5.654    
        5.582       5.491       5.407       5.311       5.208       5.112       4.931       4.670       4.372       3.961    
        3.520       2.962       2.429       1.970       1.544       1.214      0.9254      0.6289      0.2800       0.000    
  15    10.00       9.877       9.743       9.612       9.507       9.434       9.377       9.319       9.239       9.132    
        8.990       8.845       8.713       8.523       8.305       8.086       7.852       7.612       7.323       7.047    
        6.829       6.622       6.432       6.284       6.170       6.074       5.961       5.821       5.720       5.654    
        5.579       5.499       5.428       5.339       5.237       5.132       4.941       4.688       4.314       3.870    
        3.412       2.908       2.473       1.998       1.638       1.286      0.9368      0.6227      0.2553       0.000    
  16    10.00       9.858       9.713       9.593       9.504       9.438       9.379       9.326       9.249       9.140    
        9.009       8.872       8.715       8.484       8.250       8.071       7.846       7.527       7.200       6.940    
        6.711       6.533       6.381       6.249       6.125       6.033       5.912       5.792       5.706       5.632    
        5.572       5.510       5.430       5.349       5.256       5.136       4.958       4.652       4.243       3.835    
        3.440       2.949       2.457       2.038       1.698       1.328      0.9336      0.5578      0.2099       0.000    
  17    10.00       9.840       9.695       9.599       9.520       9.453       9.395       9.336       9.254       9.153    
        9.033       8.865       8.657       8.413       8.219       8.052       7.790       7.440       7.103       6.849    
        6.656       6.458       6.288       6.160       6.053       5.946       5.834       5.749       5.672       5.612    
        5.573       5.513       5.427       5.341       5.248       5.119       4.908       4.643       4.303       3.868    
        3.411       2.892       2.436       2.065       1.717       1.338      0.9533      0.5810      0.2455       0.000    
  18    10.00       9.831       9.695       9.613       9.541       9.477       9.420       9.349       9.269       9.161    
        9.020       8.827       8.598       8.393       8.204       7.969       7.670       7.355       7.057       6.806    
        6.572       6.318       6.166       6.057       5.962       5.845       5.765       5.692       5.637       5.603    
        5.565       5.507       5.417       5.319       5.220       5.079       4.871       4.648       4.351       3.944    
        3.346       2.792       2.420       2.066       1.770       1.371      0.9473      0.5693      0.2451       0.000    
  19    10.00       9.839       9.726       9.641       9.565       9.501       9.434       9.369       9.295       9.172    
        9.007       8.802       8.577       8.353       8.110       7.860       7.583       7.279       6.982       6.715    
        6.445       6.213       6.087       5.996       5.872       5.764       5.695       5.632       5.606       5.583    
        5.550       5.492       5.390       5.289       5.198       5.082       4.877       4.627       4.324       3.847    
        3.247       2.776       2.405       2.057       1.725       1.314      0.9093      0.5655      0.2664       0.000    
  20    10.00       9.848       9.752       9.678       9.604       9.528       9.449       9.379       9.305       9.180    
        9.003       8.791       8.533       8.245       7.971       7.768       7.491       7.163       6.899       6.631    
        6.387       6.190       6.037       5.905       5.751       5.672       5.619       5.580       5.569       5.555    
        5.534       5.464       5.360       5.281       5.190       5.062       4.828       4.573       4.227       3.696    
        3.178       2.802       2.372       1.976       1.616       1.212      0.9116      0.5613      0.2488       0.000    
  21    10.00       9.871       9.784       9.709       9.629       9.556       9.469       9.393       9.313       9.174    
        8.984       8.730       8.412       8.081       7.826       7.639       7.380       7.138       6.888       6.598    
        6.362       6.148       5.957       5.716       5.584       5.540       5.478       5.493       5.511       5.502    
        5.482       5.420       5.348       5.280       5.184       4.998       4.758       4.534       4.034       3.486    
        3.104       2.700       2.264       1.897       1.516       1.163      0.8252      0.4944      0.2483       0.000    
  22    10.00       9.899       9.808       9.727       9.649       9.580       9.482       9.383       9.291       9.149    
        8.920       8.605       8.251       7.941       7.722       7.526       7.326       7.151       6.880       6.597    
        6.351       6.050       5.715       5.452       5.351       5.255       5.261       5.345       5.380       5.394    
        5.395       5.364       5.327       5.274       5.170       4.957       4.701       4.298       3.741       3.395    
        2.987       2.555       2.165       1.813       1.489       1.070      0.7159      0.4740      0.2664       0.000    
  23    10.00       9.900       9.813       9.739       9.658       9.567       9.456       9.367       9.286       9.109    
        8.830       8.494       8.172       7.903       7.678       7.513       7.325       7.096       6.836       6.610    
        6.273       5.831       5.468       5.197       4.806       4.807       5.009       5.128       5.210       5.280    
        5.304       5.307       5.302       5.257       5.136       4.901       4.526       4.064       3.615       3.198    
        2.814       2.459       2.086       1.807       1.397      0.9724      0.6963      0.4558      0.2366       0.000    
  24    10.00       9.922       9.823       9.727       9.632       9.529       9.429       9.353       9.263       9.055    
        8.738       8.422       8.157       7.923       7.711       7.496       7.265       7.056       6.848       6.584    
        6.181       5.742       5.310       4.506       3.637       4.148       4.635       4.917       5.066       5.182    
        5.234       5.259       5.266       5.206       5.074       4.782       4.364       3.976       3.479       3.037    
        2.739       2.397       2.044       1.689       1.250      0.9021      0.6698      0.4269      0.1883       0.000    
  25    10.00       9.915       9.800       9.683       9.573       9.479       9.403       9.328       9.216       9.000    
        8.667       8.374       8.172       7.955       7.711       7.489       7.273       7.092       6.902       6.567    
        6.104       5.668       4.975       3.660      0.8808       3.566       4.338       4.781       5.006       5.128    
        5.192       5.225       5.219       5.141       4.999       4.691       4.247       3.801       3.398       3.016    
        2.673       2.303       1.902       1.528       1.112      0.8285      0.6672      0.4151      0.1538       0.000    
  26    10.00       9.893       9.746       9.614       9.526       9.450       9.376       9.282       9.150       8.882    
        8.574       8.370       8.177       7.962       7.734       7.521       7.321       7.144       6.909       6.554    
        6.147       5.667       5.064       4.358       3.703       4.056       4.514       4.822       5.003       5.113    
        5.171       5.196       5.167       5.079       4.910       4.570       4.097       3.735       3.404       2.991    
        2.631       2.212       1.752       1.351       1.011      0.8111      0.6313      0.3701      0.1575       0.000    
  27    10.00       9.870       9.713       9.590       9.516       9.417       9.319       9.200       9.024       8.770    
        8.553       8.372       8.175       7.964       7.740       7.572       7.437       7.202       6.907       6.544    
        6.194       5.853       5.376       4.920       4.557       4.619       4.793       4.940       5.050       5.121    
        5.172       5.176       5.134       5.022       4.817       4.449       4.078       3.756       3.372       2.982    
        2.609       2.103       1.578       1.202      0.9653      0.7981      0.6005      0.3914      0.1887       0.000    
  28    10.00       9.853       9.738       9.600       9.473       9.352       9.243       9.104       8.929       8.732    
        8.553       8.389       8.193       7.957       7.758       7.625       7.473       7.210       6.863       6.539    
        6.298       6.048       5.683       5.338       5.113       5.039       5.033       5.071       5.131       5.173    
        5.186       5.168       5.106       4.966       4.718       4.396       4.104       3.731       3.334       2.943    
        2.490       2.015       1.494       1.120      0.9548      0.7951      0.6192      0.4088      0.1895       0.000    
  29    10.00       9.857       9.714       9.568       9.416       9.299       9.177       9.023       8.875       8.719    
        8.558       8.395       8.201       8.000       7.832       7.674       7.470       7.172       6.855       6.606    
        6.407       6.193       5.900       5.597       5.413       5.309       5.240       5.221       5.229       5.220    
        5.196       5.152       5.070       4.904       4.639       4.374       4.111       3.766       3.325       2.831    
        2.418       1.915       1.396       1.104      0.9579      0.8008      0.6146      0.3994      0.1986       0.000    
  30    10.00       9.836       9.692       9.517       9.362       9.255       9.124       8.988       8.873       8.732    
        8.565       8.386       8.207       8.046       7.895       7.715       7.451       7.173       6.924       6.695    
        6.529       6.322       6.058       5.795       5.575       5.473       5.397       5.345       5.300       5.252    
        5.197       5.137       5.033       4.834       4.608       4.404       4.142       3.698       3.162       2.669    
        2.257       1.799       1.405       1.134      0.9799      0.8027      0.6038      0.4187      0.2053       0.000    
  31    10.00       9.815       9.648       9.480       9.341       9.230       9.105       8.984       8.869       8.728    
        8.561       8.378       8.222       8.086       7.939       7.731       7.469       7.235       7.045       6.849    
        6.675       6.444       6.181       5.961       5.734       5.569       5.482       5.402       5.340       5.268    
        5.197       5.116       4.986       4.806       4.597       4.378       3.975       3.497       3.059       2.582    
        2.195       1.740       1.358       1.163      0.9983      0.8315      0.6244      0.4193      0.1987       0.000    
  32    10.00       9.800       9.621       9.477       9.360       9.248       9.117       8.978       8.837       8.703    
        8.535       8.376       8.235       8.082       7.941       7.760       7.560       7.388       7.195       6.993    
        6.816       6.594       6.334       6.105       5.865       5.639       5.532       5.442       5.355       5.256    
        5.169       5.098       4.937       4.734       4.551       4.259       3.778       3.339       2.961       2.529    
        2.080       1.659       1.380       1.230       1.050      0.8389      0.6198      0.3984      0.1987       0.000    
  33    10.00       9.794       9.640       9.524       9.406       9.275       9.116       8.960       8.806       8.653    
        8.512       8.377       8.236       8.089       7.932       7.791       7.643       7.495       7.334       7.134    
        6.922       6.713       6.501       6.235       5.941       5.691       5.549       5.452       5.345       5.232    
        5.144       5.039       4.871       4.691       4.438       4.051       3.575       3.214       2.856       2.360    
        1.956       1.683       1.461       1.283       1.077      0.8556      0.5871      0.3506      0.1579       0.000    
  34    10.00       9.812       9.686       9.576       9.445       9.282       9.113       8.929       8.759       8.629    
        8.504       8.379       8.252       8.098       7.957       7.820       7.691       7.572       7.414       7.202    
        7.001       6.816       6.604       6.321       5.997       5.719       5.548       5.432       5.322       5.198    
        5.093       4.977       4.824       4.604       4.304       3.836       3.387       3.074       2.658       2.227    
        1.981       1.802       1.588       1.358       1.088      0.7759      0.4744      0.2807      0.1163       0.000    
  35    10.00       9.843       9.729       9.617       9.475       9.292       9.097       8.891       8.730       8.618    
        8.534       8.408       8.263       8.096       7.945       7.846       7.751       7.625       7.456       7.256    
        7.065       6.880       6.679       6.348       5.978       5.712       5.530       5.410       5.287       5.149    
        5.049       4.923       4.748       4.459       3.999       3.531       3.243       2.928       2.511       2.256    
        2.085       1.882       1.667       1.443       1.101      0.6596      0.3642      0.2393      0.1214       0.000    
  36    10.00       9.861       9.761       9.654       9.502       9.283       9.044       8.851       8.735       8.650    
        8.533       8.385       8.249       8.101       7.968       7.869       7.775       7.658       7.524       7.334    
        7.133       6.939       6.679       6.310       5.953       5.689       5.520       5.379       5.221       5.099    
        4.979       4.825       4.544       4.121       3.713       3.407       3.147       2.821       2.496       2.330    
        2.158       1.975       1.758       1.469       1.004      0.5551      0.3419      0.2187      0.1124       0.000    
  37    10.00       9.875       9.798       9.681       9.478       9.237       9.025       8.875       8.779       8.675    
        8.521       8.362       8.243       8.113       7.987       7.890       7.800       7.691       7.545       7.372    
        7.208       6.987       6.650       6.298       5.950       5.653       5.443       5.266       5.119       5.001    
        4.865       4.633       4.218       3.851       3.584       3.326       3.063       2.812       2.585       2.400    
        2.234       2.030       1.783       1.403      0.9189      0.5347      0.3200      0.2033      0.1020       0.000    
  38    10.00       9.893       9.800       9.672       9.460       9.211       9.032       8.920       8.819       8.692    
        8.527       8.360       8.243       8.122       7.994       7.895       7.814       7.715       7.566       7.417    
        7.259       6.984       6.592       6.207       5.845       5.549       5.316       5.122       4.986       4.873    
        4.703       4.321       3.973       3.761       3.504       3.256       3.072       2.866       2.659       2.483    
        2.288       2.010       1.698       1.286      0.8062      0.5118      0.3599      0.2242      0.1006       0.000    
  39    10.00       9.891       9.785       9.650       9.445       9.220       9.057       8.957       8.830       8.688    
        8.554       8.385       8.250       8.133       8.008       7.901       7.807       7.705       7.584       7.447    
        7.245       6.936       6.513       6.077       5.707       5.425       5.158       4.955       4.866       4.748    
        4.459       4.096       3.902       3.664       3.431       3.261       3.113       2.927       2.729       2.564    
        2.283       1.889       1.524       1.081      0.7184      0.5542      0.4124      0.2685      0.1381       0.000    
  40    10.00       9.882       9.788       9.651       9.462       9.271       9.112       8.977       8.826       8.696    
        8.593       8.425       8.253       8.133       8.017       7.891       7.786       7.706       7.596       7.414    
        7.170       6.806       6.375       5.962       5.593       5.295       4.981       4.828       4.746       4.586    
        4.329       4.082       3.823       3.586       3.428       3.286       3.147       2.975       2.793       2.578    
        2.199       1.771       1.376       1.018      0.7704      0.6013      0.4601      0.3247      0.1594       0.000    
  41    10.00       9.898       9.822       9.688       9.492       9.293       9.139       9.016       8.868       8.713    
        8.588       8.429       8.268       8.154       8.016       7.866       7.778       7.686       7.532       7.323    
        7.067       6.708       6.274       5.875       5.503       5.098       4.816       4.741       4.645       4.531    
        4.338       4.040       3.786       3.604       3.452       3.328       3.176       3.013       2.826       2.491    
        2.047       1.633       1.291       1.028      0.8133      0.6564      0.5055      0.3571      0.1880       0.000    
  42    10.00       9.923       9.839       9.709       9.539       9.347       9.172       9.045       8.908       8.732    
        8.571       8.419       8.278       8.168       8.019       7.862       7.751       7.622       7.451       7.211    
        6.913       6.520       6.140       5.739       5.250       4.901       4.768       4.705       4.627       4.508    
        4.281       4.024       3.792       3.611       3.491       3.360       3.226       3.051       2.752       2.308    
        1.923       1.615       1.319       1.022      0.8233      0.6900      0.5453      0.3716      0.2062       0.000    
  43    10.00       9.939       9.848       9.713       9.544       9.383       9.227       9.083       8.910       8.725    
        8.576       8.421       8.281       8.177       8.034       7.851       7.699       7.552       7.319       7.015    
        6.729       6.352       6.006       5.542       5.084       4.863       4.759       4.688       4.615       4.490    
        4.276       4.044       3.823       3.651       3.536       3.407       3.232       2.981       2.545       2.155    
        1.916       1.644       1.332       1.025      0.8146      0.6914      0.5800      0.4017      0.1882       0.000    
  44    10.00       9.931       9.853       9.712       9.557       9.441       9.281       9.082       8.884       8.730    
        8.580       8.421       8.298       8.186       8.016       7.813       7.636       7.461       7.187       6.890    
        6.552       6.181       5.813       5.353       5.015       4.852       4.763       4.702       4.622       4.464    
        4.249       4.065       3.872       3.713       3.596       3.416       3.183       2.825       2.386       2.131    
        1.912       1.628       1.318       1.038      0.8240      0.6930      0.5802      0.3934      0.1733       0.000    
  45    10.00       9.917       9.822       9.708       9.595       9.443       9.272       9.080       8.884       8.728    
        8.570       8.425       8.315       8.184       7.995       7.775       7.578       7.380       7.086       6.740    
        6.354       5.966       5.573       5.239       5.008       4.870       4.784       4.719       4.615       4.487    
        4.302       4.094       3.922       3.758       3.588       3.398       3.145       2.765       2.387       2.089    
        1.841       1.575       1.286       1.036      0.8494      0.7409      0.5725      0.3408      0.1553       0.000    
  46    10.00       9.899       9.801       9.709       9.579       9.404       9.237       9.080       8.886       8.717    
        8.576       8.442       8.330       8.170       7.967       7.770       7.560       7.302       6.986       6.613    
        6.163       5.781       5.470       5.218       5.043       4.921       4.813       4.723       4.641       4.499    
        4.302       4.122       3.952       3.762       3.594       3.416       3.132       2.695       2.300       2.035    
        1.803       1.548       1.278       1.058      0.9142      0.7746      0.5189      0.2551      0.1109       0.000    
  47    10.00       9.892       9.792       9.665       9.513       9.369       9.226       9.055       8.877       8.727    
        8.597       8.477       8.315       8.141       7.959       7.767       7.534       7.234       6.941       6.488    
        6.003       5.707       5.441       5.244       5.080       4.961       4.850       4.742       4.647       4.499    
        4.293       4.115       3.943       3.763       3.620       3.404       3.010       2.620       2.291       2.010    
        1.807       1.567       1.326       1.115      0.9360      0.7103      0.4267      0.2230      9.2888E-02   0.000    
  48    10.00       9.880       9.759       9.623       9.486       9.358       9.213       9.056       8.891       8.743    
        8.611       8.468       8.290       8.111       7.932       7.741       7.517       7.235       6.871       6.423    
        6.007       5.703       5.444       5.264       5.130       4.981       4.869       4.779       4.661       4.459    
        4.258       4.083       3.926       3.795       3.605       3.320       2.947       2.597       2.285       2.039    
        1.820       1.591       1.374       1.135      0.8676      0.5769      0.3646      0.2162      9.7697E-02   0.000    
  49    10.00       9.869       9.737       9.604       9.491       9.359       9.205       9.051       8.918       8.763    
        8.605       8.424       8.249       8.099       7.895       7.709       7.522       7.207       6.848       6.492    
        6.052       5.714       5.457       5.298       5.140       4.979       4.892       4.805       4.614       4.372    
        4.200       4.061       3.948       3.777       3.557       3.304       2.931       2.582       2.338       2.076    
        1.818       1.608       1.377       1.096      0.7680      0.5142      0.3646      0.2353      0.1207       0.000    
  50    10.00       9.874       9.742       9.606       9.483       9.353       9.216       9.064       8.924       8.786    
        8.591       8.402       8.242       8.040       7.833       7.691       7.513       7.269       6.913       6.561    
        6.113       5.687       5.463       5.302       5.137       5.006       4.901       4.782       4.557       4.328    
        4.186       4.072       3.940       3.762       3.559       3.317       2.941       2.583       2.346       2.109    
        1.865       1.600       1.340       1.039      0.7159      0.5262      0.3923      0.2659      0.1604       0.000    

 HEAD WILL BE SAVED ON UNIT   51 AT END OF TIME STEP  16, STRESS PERIOD    2

 DRAWDOWN WILL BE SAVED ON UNIT   52 AT END OF TIME STEP  16, STRESS PERIOD    2
1
  VOLUMETRIC BUDGET FOR ENTIRE MODEL AT END OF TIME STEP 16 IN STRESS PERIOD   2
  ------------------------------------------------------------------------------

     CUMULATIVE VOLUMES      L**3       RATES FOR THIS TIME STEP      L**3/T
     ------------------                 ------------------------

           IN:                                      IN:
           ---                                      ---
             STORAGE =        7999.3628               STORAGE =         499.7900
       CONSTANT HEAD =        6332.4492         CONSTANT HEAD =         372.6669
               WELLS =           0.0000                 WELLS =           0.0000

            TOTAL IN =       14331.8125              TOTAL IN =         872.4569

          OUT:                                     OUT:
          ----                                     ----
             STORAGE =       1.1143E-02               STORAGE =           0.0000
       CONSTANT HEAD =        6331.7993         CONSTANT HEAD =         372.4570
               WELLS =        8000.0000                 WELLS =         500.0000

           TOTAL OUT =       14331.8105             TOTAL OUT =         872.4570

            IN - OUT =       1.9531E-03              IN - OUT =      -1.2207E-04

 PERCENT DISCREPANCY =           0.00     PERCENT DISCREPANCY =           0.00






          TIME SUMMARY AT END OF TIME STEP  16 IN STRESS PERIOD    2
                    SECONDS     MINUTES      HOURS       DAYS        YEARS
                    -----------------------------------------------------------
   TIME STEP LENGTH  86400.      1440.0      24.000      1.0000     2.73785E-03
 STRESS PERIOD TIME 1.38240E+06  23040.      384.00      16.000     4.38056E-02
         TOTAL TIME 1.46880E+06  24480.      408.00      17.000     4.65435E-02
1
 
 SOLVING FOR HEAD 

 OUTPUT CONTROL FOR STRESS PERIOD    2   TIME STEP  17
    SAVE HEAD FOR ALL LAYERS
    SAVE DRAWDOWN FOR ALL LAYERS
    SAVE BUDGET
    PRINT HEAD FOR ALL LAYERS
    PRINT BUDGET
 UBDSV1 SAVING "         STORAGE" ON UNIT  53 AT TIME STEP 17, STRESS PERIOD   2
 UBDSV2 SAVING "   CONSTANT HEAD" ON UNIT  53 AT TIME STEP 17, STRESS PERIOD   2
 UBDSV1 SAVING "FLOW RIGHT FACE " ON UNIT  53 AT TIME STEP 17, STRESS PERIOD   2
 UBDSV1 SAVING "FLOW FRONT FACE " ON UNIT  53 AT TIME STEP 17, STRESS PERIOD   2
1
              HEAD IN LAYER   1 AT END OF TIME STEP  17 IN STRESS PERIOD    2
  ---------------------------------------------------------------------------

            1           2           3           4           5           6           7           8           9          10
           11          12          13          14          15          16          17          18          19          20
           21          22          23          24          25          26          27          28          29          30
           31          32          33          34          35          36          37          38          39          40
           41          42          43          44          45          46          47          48          49          50
 ........................................................................................................................
   1    10.00       9.953       9.906       9.851       9.808       9.771       9.722       9.655       9.581       9.513    
        9.362       9.174       9.035       8.881       8.716       8.549       8.395       8.217       7.979       7.743    
        7.582       7.397       7.153       6.907       6.687       6.495       6.221       5.972       5.796       5.610    
        5.450       5.344       5.226       5.092       4.963       4.803       4.631       4.399       4.135       3.846    
        3.475       3.099       2.607       2.072       1.670       1.381       1.165      0.9189      0.5394       0.000    
   2    10.00       9.948       9.898       9.852       9.815       9.779       9.725       9.656       9.588       9.496    
        9.349       9.181       9.025       8.884       8.732       8.560       8.377       8.194       7.973       7.735    
        7.559       7.408       7.148       6.882       6.687       6.470       6.207       5.969       5.768       5.593    
        5.456       5.357       5.257       5.113       4.963       4.804       4.606       4.390       4.134       3.805    
        3.457       3.137       2.620       2.088       1.732       1.474       1.225      0.9490      0.5728       0.000    
   3    10.00       9.940       9.898       9.866       9.831       9.794       9.735       9.653       9.571       9.471    
        9.338       9.189       9.039       8.897       8.716       8.502       8.324       8.166       7.963       7.753    
        7.573       7.358       7.105       6.871       6.659       6.417       6.167       5.933       5.726       5.593    
        5.478       5.382       5.281       5.122       4.964       4.796       4.601       4.359       4.073       3.821    
        3.511       3.074       2.570       2.187       1.883       1.582       1.276      0.9618      0.5428       0.000    
   4    10.00       9.940       9.903       9.874       9.850       9.811       9.744       9.649       9.552       9.453    
        9.326       9.192       9.042       8.864       8.644       8.445       8.318       8.140       7.944       7.781    
        7.536       7.267       7.044       6.837       6.632       6.345       6.071       5.885       5.739       5.622    
        5.517       5.415       5.306       5.123       4.928       4.776       4.571       4.321       4.074       3.851    
        3.499       3.016       2.635       2.311       1.984       1.642       1.273      0.9056      0.4639       0.000    
   5    10.00       9.945       9.911       9.882       9.860       9.820       9.749       9.642       9.533       9.434    
        9.327       9.190       8.998       8.791       8.605       8.448       8.290       8.125       7.941       7.714    
        7.433       7.211       7.026       6.815       6.557       6.262       6.034       5.899       5.778       5.661    
        5.540       5.416       5.293       5.119       4.919       4.736       4.551       4.351       4.124       3.828    
        3.430       3.060       2.731       2.404       2.046       1.648       1.184      0.7629      0.3950       0.000    
   6    10.00       9.954       9.921       9.893       9.863       9.819       9.743       9.628       9.533       9.427    
        9.308       9.139       8.930       8.759       8.588       8.410       8.250       8.104       7.899       7.644    
        7.396       7.183       6.996       6.740       6.460       6.235       6.048       5.919       5.790       5.670    
        5.562       5.426       5.270       5.090       4.898       4.739       4.575       4.392       4.152       3.832    
        3.480       3.120       2.784       2.453       2.064       1.582       1.082      0.7177      0.3694       0.000    
   7    10.00       9.960       9.931       9.902       9.870       9.817       9.716       9.605       9.507       9.378    
        9.255       9.077       8.889       8.714       8.539       8.362       8.207       8.073       7.842       7.571    
        7.349       7.137       6.929       6.681       6.442       6.234       6.069       5.924       5.787       5.687    
        5.577       5.429       5.263       5.076       4.907       4.765       4.613       4.423       4.174       3.879    
        3.527       3.156       2.806       2.439       2.055       1.549       1.036      0.6838      0.3235       0.000    
   8    10.00       9.967       9.941       9.909       9.872       9.787       9.665       9.560       9.439       9.316    
        9.182       9.001       8.843       8.666       8.473       8.303       8.169       8.012       7.799       7.537    
        7.283       7.087       6.916       6.664       6.420       6.235       6.050       5.896       5.797       5.703    
        5.573       5.426       5.282       5.113       4.929       4.778       4.661       4.512       4.263       3.920    
        3.533       3.201       2.872       2.445       2.015       1.450      0.9597      0.6700      0.3100       0.000    
   9    10.00       9.974       9.945       9.909       9.847       9.736       9.607       9.486       9.379       9.253    
        9.096       8.937       8.781       8.613       8.417       8.257       8.133       7.953       7.745       7.485    
        7.262       7.071       6.838       6.587       6.382       6.218       6.030       5.893       5.796       5.691    
        5.571       5.435       5.299       5.149       4.989       4.837       4.711       4.576       4.316       3.942    
        3.583       3.285       2.936       2.522       1.886       1.248      0.9145      0.5667      0.2162       0.000    
  10    10.00       9.974       9.944       9.894       9.799       9.668       9.526       9.432       9.332       9.184    
        9.047       8.891       8.736       8.559       8.380       8.237       8.074       7.889       7.673       7.464    
        7.248       6.968       6.731       6.532       6.355       6.208       6.036       5.891       5.796       5.700    
        5.570       5.423       5.300       5.159       5.016       4.907       4.778       4.619       4.320       3.947    
        3.662       3.397       2.995       2.370       1.635       1.173      0.8303      0.5068      0.2528       0.000    
  11    10.00       9.974       9.935       9.857       9.751       9.605       9.480       9.401       9.283       9.158    
        9.027       8.864       8.681       8.493       8.344       8.194       8.045       7.848       7.641       7.437    
        7.145       6.876       6.682       6.501       6.329       6.169       6.010       5.890       5.805       5.712    
        5.566       5.425       5.316       5.187       5.062       4.940       4.793       4.620       4.337       4.034    
        3.731       3.385       2.947       2.258       1.569       1.103      0.7784      0.5903      0.3260       0.000    
  12    10.00       9.973       9.917       9.818       9.680       9.536       9.437       9.360       9.257       9.144    
        9.003       8.831       8.649       8.482       8.330       8.166       7.996       7.801       7.594       7.329    
        7.045       6.837       6.648       6.465       6.279       6.118       6.000       5.902       5.796       5.686    
        5.556       5.442       5.344       5.235       5.121       4.997       4.833       4.617       4.352       4.076    
        3.750       3.371       2.772       2.000       1.415       1.087      0.8646      0.6266      0.3570       0.000    
  13    10.00       9.964       9.878       9.743       9.600       9.478       9.399       9.331       9.244       9.136    
        8.989       8.812       8.645       8.511       8.336       8.136       7.940       7.730       7.506       7.251    
        7.003       6.782       6.581       6.395       6.218       6.095       6.007       5.884       5.751       5.652    
        5.562       5.465       5.373       5.276       5.167       5.054       4.901       4.650       4.372       4.043    
        3.669       3.193       2.501       1.876       1.449       1.169      0.9092      0.6282      0.3102       0.000    
  14    10.00       9.934       9.812       9.664       9.533       9.437       9.385       9.323       9.241       9.124    
        8.963       8.813       8.676       8.536       8.344       8.110       7.901       7.666       7.417       7.156    
        6.918       6.701       6.500       6.317       6.172       6.087       5.985       5.842       5.724       5.641    
        5.571       5.480       5.397       5.303       5.201       5.106       4.927       4.667       4.370       3.960    
        3.519       2.962       2.429       1.970       1.544       1.214      0.9254      0.6289      0.2800       0.000    
  15    10.00       9.877       9.743       9.611       9.507       9.434       9.376       9.319       9.239       9.131    
        8.990       8.844       8.712       8.521       8.302       8.082       7.848       7.606       7.315       7.036    
        6.816       6.608       6.416       6.268       6.154       6.058       5.945       5.806       5.706       5.640    
        5.566       5.487       5.418       5.330       5.229       5.125       4.935       4.684       4.312       3.869    
        3.412       2.907       2.473       1.998       1.638       1.286      0.9368      0.6227      0.2553       0.000    
  16    10.00       9.858       9.713       9.593       9.504       9.437       9.379       9.326       9.249       9.139    
        9.008       8.871       8.713       8.481       8.247       8.067       7.840       7.519       7.189       6.926    
        6.695       6.515       6.362       6.230       6.106       6.015       5.894       5.775       5.690       5.617    
        5.557       5.496       5.419       5.338       5.247       5.128       4.952       4.649       4.241       3.834    
        3.439       2.949       2.457       2.037       1.698       1.328      0.9336      0.5578      0.2099       0.000    
  17    10.00       9.840       9.695       9.599       9.519       9.453       9.395       9.336       9.253       9.152    
        9.032       8.864       8.655       8.410       8.214       8.046       7.782       7.429       7.088       6.832    
        6.637       6.438       6.266       6.137       6.030       5.924       5.812       5.728       5.652       5.595    
        5.556       5.498       5.414       5.330       5.238       5.111       4.902       4.638       4.301       3.867    
        3.410       2.892       2.436       2.065       1.717       1.338      0.9533      0.5810      0.2455       0.000    
  18    10.00       9.831       9.695       9.613       9.541       9.477       9.420       9.349       9.268       9.160    
        9.019       8.825       8.595       8.389       8.199       7.961       7.659       7.340       7.039       6.785    
        6.550       6.293       6.140       6.031       5.936       5.820       5.740       5.668       5.614       5.582    
        5.546       5.491       5.403       5.307       5.209       5.071       4.865       4.644       4.348       3.942    
        3.345       2.792       2.420       2.066       1.770       1.371      0.9473      0.5693      0.2451       0.000    
  19    10.00       9.839       9.726       9.641       9.565       9.501       9.434       9.368       9.294       9.171    
        9.005       8.800       8.574       8.348       8.103       7.850       7.570       7.262       6.962       6.692    
        6.419       6.185       6.059       5.968       5.844       5.736       5.668       5.606       5.581       5.559    
        5.529       5.474       5.375       5.276       5.187       5.073       4.870       4.623       4.321       3.845    
        3.246       2.776       2.405       2.057       1.725       1.314      0.9093      0.5655      0.2664       0.000    
  20    10.00       9.848       9.752       9.678       9.604       9.528       9.449       9.379       9.304       9.180    
        9.001       8.789       8.528       8.239       7.962       7.756       7.475       7.144       6.876       6.605    
        6.359       6.161       6.007       5.875       5.721       5.642       5.590       5.552       5.542       5.529    
        5.510       5.443       5.343       5.267       5.178       5.052       4.821       4.569       4.225       3.694    
        3.178       2.801       2.372       1.976       1.616       1.212      0.9116      0.5613      0.2488       0.000    
  21    10.00       9.871       9.784       9.709       9.629       9.556       9.469       9.393       9.312       9.173    
        8.982       8.727       8.407       8.072       7.814       7.625       7.362       7.117       6.864       6.571    
        6.333       6.118       5.926       5.683       5.552       5.508       5.446       5.463       5.482       5.474    
        5.455       5.396       5.328       5.264       5.170       4.989       4.752       4.529       4.032       3.485    
        3.104       2.700       2.264       1.897       1.516       1.163      0.8252      0.4944      0.2483       0.000    
  22    10.00       9.898       9.808       9.727       9.649       9.580       9.482       9.383       9.290       9.148    
        8.918       8.601       8.244       7.931       7.708       7.510       7.307       7.129       6.855       6.568    
        6.320       6.017       5.680       5.417       5.316       5.220       5.226       5.312       5.347       5.362    
        5.366       5.337       5.304       5.255       5.156       4.948       4.695       4.294       3.740       3.394    
        2.987       2.555       2.165       1.813       1.489       1.070      0.7159      0.4740      0.2664       0.000    
  23    10.00       9.900       9.813       9.739       9.658       9.567       9.456       9.367       9.286       9.108    
        8.828       8.489       8.165       7.892       7.664       7.496       7.305       7.073       6.810       6.581    
        6.241       5.795       5.431       5.159       4.767       4.768       4.972       5.091       5.175       5.246    
        5.271       5.277       5.275       5.236       5.120       4.892       4.522       4.062       3.614       3.197    
        2.814       2.459       2.085       1.807       1.397      0.9724      0.6963      0.4558      0.2366       0.000    
  24    10.00       9.922       9.823       9.727       9.632       9.528       9.429       9.353       9.263       9.053    
        8.735       8.417       8.149       7.913       7.697       7.479       7.244       7.032       6.822       6.554    
        6.147       5.705       5.271       4.465       3.595       4.106       4.595       4.877       5.028       5.147    
        5.201       5.227       5.238       5.183       5.057       4.773       4.360       3.974       3.478       3.037    
        2.738       2.397       2.044       1.689       1.250      0.9021      0.6698      0.4269      0.1883       0.000    
  25    10.00       9.915       9.800       9.683       9.572       9.479       9.403       9.327       9.215       8.998    
        8.665       8.368       8.164       7.945       7.698       7.472       7.253       7.068       6.876       6.536    
        6.069       5.630       4.934       3.616      0.8345       3.522       4.296       4.741       4.968       5.091    
        5.157       5.193       5.190       5.118       4.982       4.681       4.243       3.799       3.397       3.016    
        2.673       2.303       1.902       1.528       1.112      0.8285      0.6672      0.4151      0.1538       0.000    
  26    10.00       9.893       9.746       9.614       9.526       9.450       9.375       9.282       9.150       8.880    
        8.571       8.365       8.170       7.952       7.721       7.504       7.301       7.121       6.883       6.522    
        6.111       5.629       5.022       4.315       3.659       4.012       4.472       4.782       4.965       5.076    
        5.137       5.164       5.140       5.057       4.894       4.561       4.092       3.733       3.403       2.990    
        2.631       2.212       1.752       1.351       1.011      0.8111      0.6313      0.3701      0.1575       0.000    
  27    10.00       9.870       9.713       9.590       9.516       9.416       9.318       9.200       9.023       8.768    
        8.550       8.367       8.168       7.955       7.727       7.556       7.419       7.180       6.880       6.512    
        6.160       5.816       5.336       4.879       4.515       4.577       4.752       4.900       5.012       5.085    
        5.139       5.147       5.109       5.001       4.802       4.440       4.073       3.754       3.371       2.981    
        2.608       2.103       1.578       1.202      0.9653      0.7981      0.6005      0.3914      0.1887       0.000    
  28    10.00       9.852       9.738       9.599       9.473       9.351       9.243       9.103       8.927       8.730    
        8.549       8.385       8.186       7.947       7.745       7.610       7.456       7.189       6.837       6.509    
        6.265       6.013       5.646       5.298       5.073       4.999       4.993       5.033       5.094       5.140    
        5.155       5.140       5.082       4.947       4.706       4.388       4.099       3.729       3.333       2.942    
        2.489       2.015       1.494       1.120      0.9548      0.7951      0.6192      0.4088      0.1895       0.000    
  29    10.00       9.857       9.714       9.568       9.416       9.299       9.176       9.022       8.873       8.717    
        8.555       8.390       8.195       7.992       7.820       7.660       7.453       7.151       6.830       6.578    
        6.376       6.159       5.864       5.559       5.375       5.271       5.203       5.185       5.196       5.190    
        5.168       5.127       5.048       4.887       4.628       4.367       4.106       3.763       3.323       2.831    
        2.418       1.915       1.396       1.104      0.9579      0.8008      0.6146      0.3994      0.1986       0.000    
  30    10.00       9.836       9.692       9.516       9.362       9.255       9.123       8.987       8.872       8.730    
        8.562       8.382       8.201       8.039       7.885       7.703       7.435       7.153       6.900       6.669    
        6.500       6.290       6.024       5.760       5.539       5.438       5.363       5.313       5.270       5.224    
        5.172       5.114       5.013       4.820       4.597       4.397       4.137       3.696       3.161       2.668    
        2.257       1.799       1.405       1.134      0.9799      0.8027      0.6038      0.4187      0.2053       0.000    
  31    10.00       9.815       9.648       9.480       9.341       9.229       9.104       8.983       8.867       8.726    
        8.558       8.374       8.217       8.080       7.931       7.721       7.455       7.217       7.024       6.825    
        6.648       6.415       6.151       5.929       5.702       5.538       5.453       5.374       5.313       5.243    
        5.175       5.095       4.969       4.792       4.587       4.371       3.971       3.495       3.058       2.582    
        2.195       1.740       1.358       1.163      0.9983      0.8315      0.6244      0.4193      0.1987       0.000    
  32    10.00       9.800       9.621       9.477       9.359       9.247       9.116       8.977       8.835       8.701    
        8.532       8.372       8.230       8.076       7.933       7.751       7.547       7.373       7.177       6.972    
        6.793       6.570       6.308       6.077       5.836       5.611       5.506       5.416       5.331       5.234    
        5.150       5.080       4.922       4.722       4.542       4.253       3.775       3.338       2.960       2.529    
        2.080       1.659       1.380       1.230       1.050      0.8389      0.6198      0.3984      0.1987       0.000    
  33    10.00       9.794       9.640       9.524       9.406       9.275       9.115       8.959       8.805       8.651    
        8.509       8.374       8.232       8.083       7.925       7.783       7.633       7.483       7.320       7.117    
        6.904       6.694       6.480       6.211       5.917       5.667       5.526       5.431       5.325       5.213    
        5.127       5.024       4.859       4.681       4.431       4.046       3.573       3.213       2.856       2.360    
        1.956       1.683       1.461       1.283       1.077      0.8556      0.5871      0.3506      0.1579       0.000    
  34    10.00       9.812       9.685       9.576       9.444       9.282       9.112       8.928       8.757       8.627    
        8.501       8.376       8.248       8.093       7.951       7.813       7.682       7.562       7.402       7.189    
        6.987       6.800       6.586       6.302       5.978       5.700       5.528       5.414       5.305       5.183    
        5.078       4.964       4.813       4.595       4.298       3.833       3.385       3.073       2.658       2.227    
        1.981       1.802       1.588       1.358       1.088      0.7759      0.4744      0.2807      0.1163       0.000    
  35    10.00       9.843       9.729       9.617       9.475       9.292       9.097       8.890       8.728       8.617    
        8.532       8.405       8.259       8.092       7.940       7.840       7.744       7.617       7.447       7.245    
        7.053       6.867       6.665       6.333       5.962       5.697       5.514       5.395       5.273       5.135    
        5.036       4.912       4.738       4.452       3.995       3.529       3.241       2.927       2.510       2.255    
        2.085       1.882       1.667       1.443       1.101      0.6596      0.3642      0.2393      0.1214       0.000    
  36    10.00       9.861       9.761       9.654       9.502       9.283       9.043       8.850       8.734       8.649    
        8.532       8.383       8.246       8.097       7.963       7.864       7.769       7.651       7.516       7.325    
        7.123       6.928       6.668       6.299       5.941       5.676       5.507       5.366       5.209       5.087    
        4.968       4.816       4.537       4.117       3.711       3.406       3.146       2.820       2.496       2.330    
        2.157       1.975       1.758       1.469       1.004      0.5551      0.3419      0.2187      0.1124       0.000    
  37    10.00       9.875       9.798       9.681       9.478       9.237       9.025       8.874       8.778       8.674    
        8.519       8.360       8.240       8.110       7.983       7.886       7.795       7.685       7.539       7.366    
        7.201       6.979       6.642       6.289       5.941       5.643       5.433       5.257       5.110       4.992    
        4.856       4.626       4.213       3.849       3.582       3.325       3.063       2.812       2.585       2.400    
        2.234       2.029       1.783       1.403      0.9189      0.5347      0.3200      0.2033      0.1020       0.000    
  38    10.00       9.893       9.800       9.671       9.460       9.211       9.031       8.919       8.818       8.691    
        8.526       8.358       8.240       8.119       7.991       7.892       7.810       7.711       7.561       7.412    
        7.254       6.979       6.587       6.202       5.840       5.543       5.310       5.115       4.980       4.867    
        4.697       4.317       3.971       3.759       3.503       3.255       3.071       2.866       2.659       2.483    
        2.288       2.009       1.698       1.286      0.8062      0.5118      0.3599      0.2242      0.1006       0.000    
  39    10.00       9.891       9.785       9.650       9.445       9.219       9.057       8.956       8.829       8.687    
        8.552       8.383       8.248       8.131       8.006       7.898       7.804       7.702       7.580       7.444    
        7.242       6.933       6.511       6.074       5.704       5.422       5.155       4.952       4.863       4.745    
        4.456       4.094       3.900       3.662       3.430       3.261       3.113       2.927       2.729       2.564    
        2.283       1.889       1.524       1.081      0.7184      0.5542      0.4124      0.2685      0.1381       0.000    
  40    10.00       9.882       9.788       9.651       9.462       9.271       9.111       8.976       8.825       8.695    
        8.593       8.424       8.252       8.131       8.015       7.889       7.783       7.703       7.593       7.411    
        7.168       6.804       6.374       5.961       5.591       5.293       4.979       4.825       4.744       4.584    
        4.328       4.081       3.822       3.585       3.428       3.286       3.147       2.974       2.793       2.578    
        2.198       1.771       1.376       1.018      0.7704      0.6013      0.4601      0.3247      0.1594       0.000    
  41    10.00       9.898       9.822       9.688       9.492       9.293       9.139       9.016       8.867       8.712    
        8.588       8.429       8.267       8.153       8.015       7.864       7.776       7.684       7.530       7.322    
        7.066       6.707       6.274       5.874       5.502       5.097       4.815       4.739       4.644       4.530    
        4.337       4.040       3.785       3.604       3.452       3.327       3.176       3.013       2.825       2.490    
        2.047       1.632       1.291       1.028      0.8133      0.6564      0.5055      0.3571      0.1880       0.000    
  42    10.00       9.923       9.839       9.709       9.539       9.347       9.172       9.045       8.908       8.732    
        8.571       8.418       8.278       8.167       8.018       7.861       7.749       7.621       7.450       7.211    
        6.913       6.519       6.140       5.738       5.250       4.900       4.767       4.705       4.626       4.507    
        4.281       4.023       3.791       3.611       3.491       3.359       3.226       3.050       2.752       2.308    
        1.923       1.615       1.319       1.022      0.8233      0.6899      0.5453      0.3716      0.2062       0.000    
  43    10.00       9.939       9.848       9.713       9.544       9.383       9.227       9.083       8.910       8.725    
        8.576       8.421       8.280       8.177       8.034       7.850       7.698       7.551       7.318       7.015    
        6.728       6.352       6.006       5.541       5.084       4.862       4.759       4.687       4.614       4.489    
        4.275       4.044       3.823       3.650       3.536       3.407       3.232       2.981       2.545       2.155    
        1.916       1.644       1.332       1.025      0.8146      0.6914      0.5800      0.4017      0.1882       0.000    
  44    10.00       9.931       9.853       9.712       9.557       9.441       9.281       9.082       8.884       8.730    
        8.580       8.421       8.297       8.186       8.015       7.812       7.636       7.461       7.187       6.890    
        6.551       6.181       5.813       5.353       5.014       4.852       4.762       4.702       4.622       4.463    
        4.249       4.065       3.872       3.713       3.596       3.416       3.183       2.825       2.386       2.131    
        1.912       1.628       1.318       1.038      0.8240      0.6930      0.5802      0.3934      0.1733       0.000    
  45    10.00       9.917       9.822       9.708       9.595       9.443       9.272       9.080       8.884       8.728    
        8.569       8.425       8.315       8.184       7.994       7.775       7.578       7.380       7.086       6.740    
        6.354       5.966       5.573       5.239       5.008       4.870       4.784       4.718       4.614       4.486    
        4.302       4.094       3.922       3.758       3.588       3.398       3.145       2.765       2.387       2.089    
        1.841       1.575       1.286       1.036      0.8494      0.7409      0.5725      0.3408      0.1553       0.000    
  46    10.00       9.899       9.801       9.709       9.579       9.404       9.237       9.080       8.886       8.717    
        8.576       8.442       8.330       8.169       7.967       7.770       7.560       7.302       6.986       6.613    
        6.163       5.781       5.470       5.218       5.043       4.921       4.813       4.723       4.641       4.499    
        4.302       4.121       3.952       3.762       3.594       3.416       3.131       2.695       2.300       2.035    
        1.803       1.548       1.278       1.058      0.9142      0.7746      0.5189      0.2551      0.1109       0.000    
  47    10.00       9.892       9.792       9.665       9.513       9.369       9.226       9.055       8.877       8.727    
        8.597       8.477       8.315       8.141       7.959       7.767       7.534       7.234       6.941       6.488    
        6.003       5.707       5.441       5.244       5.080       4.960       4.850       4.742       4.647       4.499    
        4.293       4.115       3.942       3.763       3.620       3.404       3.010       2.620       2.291       2.010    
        1.807       1.567       1.326       1.115      0.9360      0.7103      0.4267      0.2230      9.2888E-02   0.000    
  48    10.00       9.880       9.759       9.623       9.486       9.358       9.213       9.056       8.891       8.743    
        8.611       8.468       8.290       8.111       7.932       7.741       7.517       7.235       6.871       6.423    
        6.007       5.703       5.444       5.263       5.130       4.981       4.868       4.778       4.661       4.459    
        4.257       4.083       3.926       3.794       3.605       3.320       2.947       2.597       2.285       2.039    
        1.820       1.591       1.374       1.135      0.8676      0.5769      0.3646      0.2162      9.7697E-02   0.000    
  49    10.00       9.869       9.737       9.604       9.491       9.359       9.205       9.051       8.918       8.763    
        8.605       8.424       8.249       8.099       7.895       7.709       7.522       7.207       6.848       6.492    
        6.052       5.714       5.457       5.298       5.140       4.979       4.892       4.805       4.614       4.372    
        4.200       4.061       3.948       3.777       3.557       3.304       2.931       2.582       2.338       2.076    
        1.818       1.608       1.377       1.096      0.7680      0.5142      0.3646      0.2353      0.1207       0.000    
  50    10.00       9.874       9.742       9.606       9.483       9.353       9.216       9.064       8.924       8.786    
        8.590       8.402       8.242       8.040       7.833       7.691       7.513       7.269       6.913       6.561    
        6.113       5.687       5.463       5.302       5.137       5.006       4.901       4.782       4.557       4.328    
        4.186       4.072       3.940       3.762       3.559       3.317       2.941       2.583       2.346       2.109    
        1.865       1.600       1.340       1.039      0.7159      0.5262      0.3923      0.2659      0.1604       0.000    

 HEAD WILL BE SAVED ON UNIT   51 AT END OF TIME STEP  17, STRESS PERIOD    2

 DRAWDOWN WILL BE SAVED ON UNIT   52 AT END OF TIME STEP  17, STRESS PERIOD    2
1
  VOLUMETRIC BUDGET FOR ENTIRE MODEL AT END OF TIME STEP 17 IN STRESS PERIOD   2
  ------------------------------------------------------------------------------

     CUMULATIVE VOLUMES      L**3       RATES FOR THIS TIME STEP      L**3/T
     ------------------                 ------------------------

           IN:                                      IN:
           ---                                      ---
             STORAGE =        8499.0791               STORAGE =         499.7164
       CONSTANT HEAD =        6705.1890         CONSTANT HEAD =         372.7398
               WELLS =           0.0000                 WELLS =           0.0000

            TOTAL IN =       15204.2676              TOTAL IN =         872.4562

          OUT:                                     OUT:
          ----                                     ----
             STORAGE =       1.1143E-02               STORAGE =           0.0000
       CONSTANT HEAD =        6704.2554         CONSTANT HEAD =         372.4559
               WELLS =        8500.0000                 WELLS =         500.0000

           TOTAL OUT =       15204.2666             TOTAL OUT =         872.4559

            IN - OUT =       9.7656E-04              IN - OUT =       2.4414E-04

 PERCENT DISCREPANCY =           0.00     PERCENT DISCREPANCY =           0.00






          TIME SUMMARY AT END OF TIME STEP  17 IN STRESS PERIOD    2
                    SECONDS     MINUTES      HOURS       DAYS        YEARS
                    -----------------------------------------------------------
   TIME STEP LENGTH  86400.      1440.0      24.000      1.0000     2.73785E-03
 STRESS PERIOD TIME 1.46880E+06  24480.      408.00      17.000     4.65435E-02
         TOTAL TIME 1.55520E+06  25920.      432.00      18.000     4.92813E-02
1
 
 SOLVING FOR HEAD 

 OUTPUT CONTROL FOR STRESS PERIOD    2   TIME STEP  18
    SAVE HEAD FOR ALL LAYERS
    SAVE DRAWDOWN FOR ALL LAYERS
    SAVE BUDGET
    PRINT HEAD FOR ALL LAYERS
    PRINT BUDGET
 UBDSV1 SAVING "         STORAGE" ON UNIT  53 AT TIME STEP 18, STRESS PERIOD   2
 UBDSV2 SAVING "   CONSTANT HEAD" ON UNIT  53 AT TIME STEP 18, STRESS PERIOD   2
 UBDSV1 SAVING "FLOW RIGHT FACE " ON UNIT  53 AT TIME STEP 18, STRESS PERIOD   2
 UBDSV1 SAVING "FLOW FRONT FACE " ON UNIT  53 AT TIME STEP 18, STRESS PERIOD   2
1
              HEAD IN LAYER   1 AT END OF TIME STEP  18 IN STRESS PERIOD    2
  ---------------------------------------------------------------------------

            1           2           3           4           5           6           7           8           9          10
           11          12          13          14          15          16          17          18          19          20
           21          22          23          24          25          26          27          28          29          30
           31          32          33          34          35          36          37          38          39          40
           41          42          43          44          45          46          47          48          49          50
 ........................................................................................................................
   1    10.00       9.953       9.906       9.851       9.808       9.771       9.722       9.655       9.581       9.513    
        9.362       9.174       9.035       8.881       8.716       8.549       8.395       8.217       7.979       7.743    
        7.581       7.396       7.153       6.907       6.687       6.494       6.220       5.972       5.796       5.610    
        5.449       5.343       5.226       5.092       4.963       4.803       4.631       4.399       4.135       3.846    
        3.475       3.099       2.607       2.072       1.670       1.381       1.165      0.9189      0.5394       0.000    
   2    10.00       9.948       9.898       9.852       9.815       9.779       9.725       9.656       9.588       9.496    
        9.349       9.181       9.025       8.884       8.732       8.560       8.377       8.194       7.973       7.735    
        7.559       7.407       7.148       6.882       6.686       6.469       6.207       5.968       5.767       5.592    
        5.455       5.357       5.257       5.113       4.962       4.803       4.606       4.390       4.134       3.805    
        3.457       3.137       2.620       2.088       1.732       1.474       1.225      0.9490      0.5728       0.000    
   3    10.00       9.940       9.898       9.866       9.831       9.794       9.735       9.653       9.571       9.471    
        9.338       9.189       9.039       8.897       8.716       8.502       8.324       8.166       7.963       7.753    
        7.573       7.358       7.105       6.870       6.658       6.416       6.167       5.932       5.725       5.593    
        5.478       5.381       5.281       5.122       4.964       4.796       4.600       4.359       4.073       3.821    
        3.511       3.074       2.570       2.187       1.883       1.582       1.276      0.9618      0.5428       0.000    
   4    10.00       9.940       9.903       9.874       9.850       9.811       9.744       9.649       9.552       9.453    
        9.326       9.192       9.042       8.864       8.644       8.445       8.318       8.140       7.944       7.781    
        7.536       7.267       7.044       6.836       6.631       6.345       6.070       5.884       5.738       5.621    
        5.516       5.414       5.306       5.122       4.927       4.776       4.570       4.320       4.074       3.850    
        3.499       3.016       2.635       2.311       1.984       1.642       1.273      0.9056      0.4639       0.000    
   5    10.00       9.945       9.911       9.882       9.860       9.820       9.749       9.642       9.533       9.434    
        9.327       9.189       8.998       8.791       8.605       8.448       8.290       8.125       7.941       7.714    
        7.433       7.210       7.025       6.815       6.556       6.261       6.033       5.898       5.777       5.660    
        5.539       5.415       5.292       5.118       4.919       4.735       4.550       4.351       4.124       3.828    
        3.429       3.060       2.731       2.404       2.046       1.648       1.184      0.7629      0.3950       0.000    
   6    10.00       9.954       9.921       9.893       9.863       9.819       9.743       9.628       9.533       9.427    
        9.308       9.139       8.930       8.759       8.587       8.410       8.250       8.103       7.899       7.644    
        7.395       7.183       6.995       6.738       6.459       6.233       6.046       5.918       5.788       5.668    
        5.561       5.424       5.269       5.089       4.897       4.738       4.574       4.391       4.151       3.831    
        3.479       3.120       2.784       2.453       2.064       1.582       1.082      0.7177      0.3694       0.000    
   7    10.00       9.960       9.931       9.902       9.869       9.817       9.716       9.605       9.507       9.377    
        9.255       9.077       8.889       8.713       8.539       8.362       8.206       8.073       7.842       7.570    
        7.348       7.136       6.927       6.679       6.440       6.232       6.067       5.921       5.785       5.685    
        5.575       5.427       5.261       5.075       4.905       4.763       4.612       4.422       4.173       3.878    
        3.527       3.156       2.806       2.439       2.055       1.549       1.036      0.6838      0.3235       0.000    
   8    10.00       9.967       9.941       9.909       9.872       9.787       9.665       9.560       9.439       9.316    
        9.182       9.001       8.842       8.666       8.473       8.302       8.168       8.011       7.798       7.535    
        7.281       7.085       6.913       6.661       6.417       6.231       6.046       5.893       5.794       5.700    
        5.570       5.422       5.279       5.110       4.927       4.776       4.660       4.511       4.262       3.919    
        3.533       3.201       2.872       2.445       2.015       1.450      0.9597      0.6700      0.3100       0.000    
   9    10.00       9.974       9.945       9.909       9.847       9.736       9.607       9.485       9.379       9.253    
        9.096       8.936       8.780       8.613       8.416       8.256       8.132       7.951       7.743       7.483    
        7.260       7.068       6.834       6.583       6.377       6.213       6.025       5.888       5.791       5.686    
        5.567       5.431       5.295       5.146       4.986       4.835       4.709       4.574       4.315       3.941    
        3.583       3.285       2.936       2.522       1.886       1.248      0.9145      0.5667      0.2162       0.000    
  10    10.00       9.974       9.944       9.894       9.799       9.668       9.526       9.432       9.332       9.184    
        9.047       8.890       8.736       8.558       8.379       8.236       8.073       7.887       7.671       7.461    
        7.245       6.963       6.726       6.526       6.349       6.202       6.030       5.884       5.789       5.694    
        5.564       5.418       5.295       5.155       5.012       4.904       4.775       4.617       4.319       3.946    
        3.661       3.397       2.995       2.370       1.635       1.173      0.8303      0.5068      0.2528       0.000    
  11    10.00       9.974       9.935       9.857       9.751       9.605       9.480       9.401       9.283       9.158    
        9.027       8.864       8.681       8.492       8.342       8.192       8.043       7.845       7.638       7.433    
        7.140       6.869       6.675       6.493       6.321       6.161       6.002       5.882       5.797       5.705    
        5.559       5.419       5.311       5.182       5.058       4.936       4.790       4.617       4.335       4.033    
        3.730       3.384       2.947       2.258       1.569       1.103      0.7784      0.5903      0.3260       0.000    
  12    10.00       9.973       9.917       9.818       9.680       9.536       9.437       9.359       9.257       9.144    
        9.002       8.830       8.649       8.481       8.328       8.164       7.994       7.798       7.590       7.323    
        7.038       6.829       6.640       6.456       6.269       6.108       5.990       5.892       5.787       5.677    
        5.548       5.434       5.336       5.229       5.115       4.992       4.830       4.615       4.350       4.074    
        3.749       3.371       2.772       2.000       1.415       1.087      0.8646      0.6265      0.3570       0.000    
  13    10.00       9.964       9.878       9.743       9.600       9.478       9.399       9.330       9.244       9.136    
        8.988       8.811       8.644       8.510       8.334       8.134       7.937       7.726       7.500       7.244    
        6.994       6.772       6.570       6.383       6.205       6.083       5.995       5.873       5.740       5.641    
        5.552       5.456       5.365       5.268       5.160       5.048       4.896       4.646       4.370       4.042    
        3.668       3.193       2.501       1.876       1.449       1.169      0.9092      0.6282      0.3102       0.000    
  14    10.00       9.934       9.812       9.664       9.533       9.437       9.384       9.323       9.240       9.124    
        8.962       8.812       8.674       8.535       8.342       8.107       7.897       7.661       7.410       7.147    
        6.908       6.689       6.487       6.303       6.158       6.073       5.972       5.828       5.711       5.629    
        5.559       5.469       5.388       5.294       5.193       5.100       4.922       4.664       4.368       3.959    
        3.519       2.962       2.428       1.970       1.544       1.214      0.9254      0.6288      0.2800       0.000    
  15    10.00       9.877       9.743       9.611       9.507       9.434       9.376       9.319       9.238       9.131    
        8.989       8.843       8.710       8.519       8.299       8.079       7.843       7.600       7.306       7.025    
        6.803       6.593       6.401       6.252       6.138       6.042       5.930       5.791       5.691       5.627    
        5.553       5.475       5.407       5.320       5.220       5.118       4.930       4.680       4.310       3.868    
        3.411       2.907       2.472       1.998       1.638       1.286      0.9368      0.6227      0.2553       0.000    
  16    10.00       9.858       9.712       9.593       9.503       9.437       9.378       9.326       9.249       9.138    
        9.007       8.869       8.712       8.479       8.243       8.062       7.834       7.510       7.177       6.912    
        6.679       6.498       6.343       6.211       6.087       5.997       5.876       5.757       5.673       5.601    
        5.543       5.483       5.407       5.328       5.238       5.120       4.946       4.645       4.238       3.833    
        3.438       2.948       2.457       2.037       1.698       1.328      0.9336      0.5578      0.2099       0.000    
  17    10.00       9.840       9.694       9.599       9.519       9.452       9.395       9.335       9.253       9.151    
        9.031       8.862       8.652       8.406       8.209       8.040       7.773       7.417       7.073       6.814    
        6.618       6.417       6.245       6.115       6.008       5.902       5.791       5.708       5.633       5.577    
        5.540       5.484       5.401       5.318       5.228       5.102       4.896       4.634       4.298       3.865    
        3.410       2.892       2.436       2.065       1.717       1.338      0.9533      0.5810      0.2455       0.000    
  18    10.00       9.831       9.695       9.613       9.541       9.477       9.420       9.349       9.268       9.160    
        9.018       8.823       8.592       8.384       8.193       7.953       7.648       7.326       7.022       6.766    
        6.528       6.269       6.115       6.005       5.911       5.795       5.716       5.644       5.592       5.562    
        5.528       5.474       5.389       5.295       5.199       5.062       4.858       4.639       4.344       3.940    
        3.345       2.792       2.420       2.066       1.770       1.371      0.9473      0.5693      0.2451       0.000    
  19    10.00       9.839       9.726       9.641       9.565       9.500       9.434       9.368       9.294       9.170    
        9.004       8.798       8.570       8.342       8.096       7.840       7.556       7.245       6.942       6.669    
        6.394       6.158       6.032       5.941       5.817       5.709       5.642       5.580       5.557       5.536    
        5.508       5.455       5.359       5.263       5.175       5.063       4.863       4.618       4.318       3.844    
        3.245       2.775       2.404       2.057       1.725       1.314      0.9093      0.5655      0.2664       0.000    
  20    10.00       9.848       9.752       9.678       9.604       9.528       9.449       9.378       9.303       9.179    
        8.999       8.786       8.524       8.232       7.952       7.744       7.460       7.124       6.853       6.580    
        6.332       6.133       5.978       5.846       5.691       5.613       5.562       5.525       5.516       5.504    
        5.486       5.423       5.326       5.253       5.165       5.042       4.814       4.564       4.221       3.693    
        3.177       2.801       2.372       1.976       1.616       1.212      0.9116      0.5613      0.2488       0.000    
  21    10.00       9.870       9.784       9.709       9.629       9.556       9.469       9.392       9.311       9.172    
        8.980       8.724       8.402       8.064       7.802       7.611       7.345       7.096       6.840       6.545    
        6.305       6.088       5.896       5.652       5.520       5.477       5.416       5.434       5.454       5.446    
        5.429       5.373       5.309       5.247       5.157       4.979       4.745       4.525       4.029       3.484    
        3.103       2.700       2.264       1.897       1.516       1.163      0.8252      0.4944      0.2483       0.000    
  22    10.00       9.898       9.808       9.726       9.649       9.580       9.481       9.382       9.289       9.147    
        8.916       8.597       8.237       7.920       7.695       7.494       7.288       7.108       6.830       6.540    
        6.291       5.986       5.646       5.383       5.282       5.186       5.193       5.280       5.316       5.332    
        5.337       5.310       5.281       5.237       5.141       4.938       4.689       4.291       3.739       3.393    
        2.986       2.554       2.165       1.813       1.489       1.070      0.7159      0.4740      0.2664       0.000    
  23    10.00       9.900       9.812       9.739       9.657       9.566       9.455       9.366       9.285       9.106    
        8.825       8.484       8.157       7.881       7.650       7.480       7.286       7.050       6.784       6.553    
        6.209       5.761       5.395       5.123       4.730       4.732       4.936       5.056       5.140       5.213    
        5.240       5.248       5.249       5.215       5.105       4.882       4.517       4.060       3.613       3.197    
        2.814       2.459       2.085       1.807       1.397      0.9724      0.6963      0.4558      0.2366       0.000    
  24    10.00       9.922       9.823       9.726       9.632       9.528       9.429       9.352       9.262       9.052    
        8.732       8.411       8.141       7.902       7.683       7.462       7.224       7.008       6.796       6.525    
        6.115       5.669       5.234       4.426       3.554       4.067       4.556       4.840       4.992       5.112    
        5.168       5.196       5.210       5.160       5.041       4.764       4.356       3.972       3.478       3.036    
        2.738       2.397       2.044       1.689       1.250      0.9021      0.6698      0.4269      0.1883       0.000    
  25    10.00       9.915       9.800       9.682       9.572       9.478       9.402       9.327       9.214       8.997    
        8.661       8.363       8.157       7.935       7.684       7.454       7.232       7.045       6.850       6.507    
        6.035       5.593       4.895       3.575      0.7905       3.481       4.256       4.702       4.931       5.056    
        5.124       5.161       5.162       5.096       4.965       4.672       4.239       3.797       3.396       3.015    
        2.673       2.303       1.902       1.528       1.112      0.8285      0.6672      0.4151      0.1538       0.000    
  26    10.00       9.893       9.746       9.614       9.526       9.450       9.375       9.281       9.149       8.879    
        8.567       8.360       8.163       7.942       7.708       7.488       7.281       7.099       6.857       6.492    
        6.077       5.592       4.983       4.274       3.617       3.971       4.431       4.743       4.927       5.040    
        5.103       5.134       5.113       5.035       4.877       4.551       4.088       3.730       3.402       2.990    
        2.630       2.212       1.752       1.351       1.011      0.8111      0.6313      0.3701      0.1575       0.000    
  27    10.00       9.870       9.713       9.590       9.515       9.416       9.317       9.199       9.021       8.766    
        8.546       8.362       8.161       7.945       7.714       7.540       7.401       7.159       6.854       6.482    
        6.127       5.780       5.298       4.839       4.475       4.537       4.712       4.862       4.975       5.050    
        5.107       5.118       5.083       4.980       4.787       4.431       4.068       3.751       3.370       2.981    
        2.608       2.103       1.578       1.202      0.9653      0.7981      0.6005      0.3914      0.1887       0.000    
  28    10.00       9.852       9.738       9.599       9.472       9.351       9.242       9.102       8.925       8.727    
        8.546       8.380       8.179       7.937       7.733       7.595       7.439       7.168       6.811       6.480    
        6.234       5.980       5.610       5.261       5.035       4.961       4.955       4.996       5.059       5.107    
        5.126       5.113       5.058       4.928       4.692       4.380       4.094       3.726       3.331       2.941    
        2.489       2.015       1.494       1.120      0.9548      0.7951      0.6192      0.4088      0.1895       0.000    
  29    10.00       9.857       9.714       9.568       9.415       9.298       9.175       9.020       8.871       8.714    
        8.551       8.385       8.188       7.983       7.809       7.647       7.436       7.131       6.805       6.550    
        6.346       6.128       5.830       5.524       5.338       5.235       5.167       5.151       5.165       5.161    
        5.141       5.102       5.026       4.870       4.616       4.359       4.100       3.760       3.322       2.830    
        2.418       1.915       1.396       1.104      0.9579      0.8008      0.6146      0.3994      0.1986       0.000    
  30    10.00       9.836       9.692       9.516       9.362       9.254       9.122       8.986       8.870       8.728    
        8.559       8.377       8.195       8.031       7.876       7.690       7.419       7.133       6.877       6.643    
        6.472       6.260       5.992       5.727       5.505       5.404       5.331       5.283       5.242       5.198    
        5.147       5.091       4.993       4.805       4.586       4.389       4.131       3.693       3.160       2.668    
        2.256       1.799       1.405       1.134      0.9799      0.8027      0.6038      0.4187      0.2053       0.000    
  31    10.00       9.815       9.648       9.479       9.340       9.229       9.103       8.982       8.866       8.724    
        8.555       8.369       8.211       8.073       7.922       7.710       7.441       7.199       7.004       6.801    
        6.623       6.387       6.121       5.898       5.670       5.507       5.424       5.347       5.287       5.219    
        5.152       5.075       4.952       4.778       4.577       4.363       3.967       3.493       3.057       2.582    
        2.194       1.740       1.358       1.163      0.9983      0.8315      0.6243      0.4193      0.1987       0.000    
  32    10.00       9.800       9.620       9.476       9.359       9.247       9.115       8.976       8.833       8.699    
        8.529       8.368       8.225       8.070       7.926       7.741       7.535       7.358       7.160       6.952    
        6.771       6.546       6.282       6.050       5.809       5.584       5.481       5.392       5.308       5.213    
        5.130       5.062       4.907       4.710       4.533       4.246       3.771       3.336       2.959       2.529    
        2.080       1.659       1.379       1.230       1.050      0.8389      0.6198      0.3984      0.1987       0.000    
  33    10.00       9.794       9.640       9.524       9.406       9.274       9.114       8.958       8.804       8.649    
        8.507       8.370       8.227       8.078       7.918       7.774       7.623       7.471       7.306       7.101    
        6.886       6.674       6.459       6.188       5.894       5.644       5.503       5.409       5.305       5.195    
        5.110       5.008       4.846       4.671       4.423       4.041       3.571       3.212       2.855       2.359    
        1.955       1.683       1.461       1.283       1.077      0.8556      0.5871      0.3506      0.1579       0.000    
  34    10.00       9.812       9.685       9.576       9.444       9.281       9.112       8.927       8.756       8.625    
        8.499       8.373       8.244       8.088       7.945       7.805       7.673       7.552       7.391       7.176    
        6.972       6.784       6.569       6.283       5.958       5.680       5.509       5.396       5.288       5.167    
        5.063       4.951       4.802       4.586       4.291       3.829       3.383       3.072       2.657       2.226    
        1.981       1.801       1.588       1.358       1.088      0.7759      0.4744      0.2807      0.1163       0.000    
  35    10.00       9.842       9.729       9.617       9.475       9.291       9.096       8.889       8.727       8.615    
        8.530       8.402       8.256       8.087       7.934       7.833       7.737       7.608       7.438       7.234    
        7.040       6.853       6.650       6.318       5.946       5.681       5.498       5.379       5.258       5.122    
        5.023       4.900       4.728       4.445       3.991       3.527       3.240       2.926       2.510       2.255    
        2.085       1.882       1.667       1.443       1.101      0.6596      0.3642      0.2393      0.1214       0.000    
  36    10.00       9.861       9.761       9.654       9.502       9.282       9.043       8.849       8.733       8.647    
        8.529       8.380       8.243       8.093       7.958       7.859       7.763       7.645       7.509       7.317    
        7.113       6.917       6.657       6.287       5.928       5.663       5.494       5.353       5.197       5.075    
        4.957       4.806       4.529       4.112       3.708       3.404       3.145       2.820       2.496       2.330    
        2.157       1.975       1.758       1.468       1.004      0.5551      0.3419      0.2187      0.1124       0.000    
  37    10.00       9.875       9.798       9.681       9.477       9.236       9.024       8.873       8.777       8.672    
        8.517       8.357       8.237       8.107       7.979       7.882       7.790       7.680       7.533       7.359    
        7.193       6.971       6.634       6.281       5.932       5.633       5.423       5.247       5.101       4.983    
        4.848       4.619       4.209       3.846       3.580       3.323       3.062       2.812       2.584       2.400    
        2.234       2.029       1.783       1.403      0.9189      0.5347      0.3200      0.2033      0.1020       0.000    
  38    10.00       9.893       9.800       9.671       9.460       9.210       9.030       8.918       8.817       8.690    
        8.524       8.356       8.238       8.116       7.987       7.888       7.806       7.707       7.557       7.407    
        7.248       6.973       6.581       6.196       5.834       5.537       5.304       5.109       4.974       4.861    
        4.691       4.313       3.968       3.757       3.502       3.255       3.071       2.865       2.659       2.482    
        2.288       2.009       1.698       1.286      0.8062      0.5118      0.3599      0.2242      0.1006       0.000    
  39    10.00       9.891       9.785       9.650       9.445       9.219       9.056       8.955       8.828       8.686    
        8.551       8.382       8.246       8.128       8.003       7.895       7.801       7.699       7.577       7.440    
        7.238       6.929       6.507       6.071       5.700       5.418       5.151       4.948       4.858       4.741    
        4.453       4.092       3.898       3.661       3.429       3.260       3.112       2.926       2.728       2.564    
        2.283       1.889       1.524       1.081      0.7184      0.5542      0.4124      0.2685      0.1381       0.000    
  40    10.00       9.882       9.788       9.651       9.461       9.271       9.111       8.976       8.824       8.694    
        8.592       8.423       8.250       8.129       8.013       7.887       7.781       7.701       7.591       7.409    
        7.165       6.802       6.372       5.959       5.589       5.290       4.977       4.823       4.742       4.582    
        4.326       4.080       3.821       3.584       3.427       3.286       3.146       2.974       2.793       2.578    
        2.198       1.770       1.376       1.018      0.7704      0.6013      0.4601      0.3247      0.1594       0.000    
  41    10.00       9.898       9.822       9.688       9.492       9.293       9.139       9.016       8.867       8.711    
        8.587       8.428       8.265       8.151       8.013       7.862       7.774       7.682       7.528       7.320    
        7.065       6.706       6.273       5.873       5.501       5.096       4.814       4.738       4.643       4.528    
        4.335       4.039       3.785       3.603       3.451       3.327       3.175       3.012       2.825       2.490    
        2.047       1.632       1.291       1.028      0.8132      0.6564      0.5055      0.3571      0.1880       0.000    
  42    10.00       9.923       9.839       9.709       9.539       9.347       9.171       9.045       8.908       8.732    
        8.570       8.418       8.277       8.166       8.017       7.859       7.748       7.620       7.449       7.210    
        6.912       6.519       6.140       5.738       5.249       4.900       4.766       4.704       4.625       4.506    
        4.280       4.023       3.791       3.611       3.490       3.359       3.226       3.050       2.752       2.308    
        1.923       1.615       1.319       1.022      0.8233      0.6899      0.5453      0.3716      0.2062       0.000    
  43    10.00       9.939       9.848       9.713       9.544       9.383       9.227       9.083       8.910       8.725    
        8.576       8.420       8.280       8.176       8.033       7.849       7.697       7.550       7.317       7.014    
        6.728       6.352       6.005       5.541       5.084       4.862       4.758       4.687       4.614       4.488    
        4.275       4.043       3.823       3.650       3.536       3.407       3.231       2.981       2.545       2.155    
        1.915       1.644       1.332       1.025      0.8146      0.6914      0.5800      0.4017      0.1882       0.000    
  44    10.00       9.931       9.853       9.712       9.557       9.441       9.281       9.082       8.884       8.730    
        8.580       8.421       8.297       8.185       8.015       7.812       7.636       7.460       7.187       6.890    
        6.551       6.181       5.813       5.353       5.014       4.851       4.762       4.701       4.621       4.463    
        4.249       4.064       3.872       3.713       3.596       3.416       3.183       2.825       2.386       2.130    
        1.912       1.628       1.318       1.038      0.8240      0.6930      0.5802      0.3934      0.1733       0.000    
  45    10.00       9.917       9.822       9.708       9.595       9.443       9.272       9.080       8.884       8.728    
        8.569       8.425       8.315       8.184       7.994       7.775       7.577       7.380       7.086       6.740    
        6.354       5.966       5.573       5.239       5.007       4.870       4.783       4.718       4.614       4.486    
        4.302       4.093       3.922       3.757       3.587       3.398       3.145       2.765       2.387       2.089    
        1.841       1.575       1.286       1.036      0.8494      0.7409      0.5725      0.3408      0.1553       0.000    
  46    10.00       9.899       9.801       9.709       9.579       9.404       9.237       9.080       8.885       8.717    
        8.576       8.442       8.330       8.169       7.967       7.770       7.560       7.302       6.986       6.613    
        6.163       5.781       5.470       5.218       5.042       4.921       4.812       4.723       4.641       4.499    
        4.302       4.121       3.952       3.762       3.594       3.416       3.131       2.695       2.300       2.035    
        1.803       1.548       1.278       1.058      0.9142      0.7746      0.5189      0.2551      0.1109       0.000    
  47    10.00       9.892       9.792       9.665       9.513       9.369       9.226       9.055       8.877       8.727    
        8.597       8.477       8.315       8.141       7.959       7.767       7.534       7.234       6.941       6.488    
        6.003       5.707       5.441       5.244       5.080       4.960       4.850       4.742       4.647       4.499    
        4.293       4.115       3.942       3.763       3.620       3.404       3.010       2.620       2.291       2.010    
        1.807       1.567       1.326       1.115      0.9360      0.7103      0.4267      0.2230      9.2888E-02   0.000    
  48    10.00       9.880       9.759       9.623       9.486       9.358       9.213       9.056       8.891       8.743    
        8.611       8.468       8.290       8.111       7.932       7.741       7.517       7.235       6.871       6.423    
        6.007       5.703       5.444       5.263       5.130       4.981       4.868       4.778       4.661       4.459    
        4.257       4.083       3.926       3.794       3.605       3.320       2.947       2.597       2.285       2.039    
        1.820       1.591       1.374       1.135      0.8676      0.5769      0.3646      0.2162      9.7697E-02   0.000    
  49    10.00       9.869       9.737       9.604       9.491       9.359       9.205       9.051       8.918       8.763    
        8.605       8.424       8.249       8.099       7.895       7.709       7.522       7.207       6.848       6.492    
        6.052       5.714       5.456       5.298       5.140       4.979       4.892       4.805       4.614       4.372    
        4.200       4.061       3.948       3.776       3.557       3.304       2.931       2.582       2.338       2.076    
        1.818       1.608       1.377       1.096      0.7680      0.5142      0.3646      0.2353      0.1207       0.000    
  50    10.00       9.874       9.742       9.606       9.483       9.353       9.216       9.064       8.924       8.786    
        8.590       8.402       8.242       8.040       7.833       7.691       7.513       7.269       6.913       6.561    
        6.113       5.687       5.463       5.302       5.137       5.006       4.901       4.782       4.557       4.328    
        4.186       4.072       3.940       3.762       3.559       3.317       2.941       2.583       2.346       2.109    
        1.865       1.600       1.340       1.039      0.7159      0.5262      0.3923      0.2659      0.1604       0.000    

 HEAD WILL BE SAVED ON UNIT   51 AT END OF TIME STEP  18, STRESS PERIOD    2

 DRAWDOWN WILL BE SAVED ON UNIT   52 AT END OF TIME STEP  18, STRESS PERIOD    2
1
  VOLUMETRIC BUDGET FOR ENTIRE MODEL AT END OF TIME STEP 18 IN STRESS PERIOD   2
  ------------------------------------------------------------------------------

     CUMULATIVE VOLUMES      L**3       RATES FOR THIS TIME STEP      L**3/T
     ------------------                 ------------------------

           IN:                                      IN:
           ---                                      ---
             STORAGE =        8998.7041               STORAGE =         499.6250
       CONSTANT HEAD =        7078.0186         CONSTANT HEAD =         372.8296
               WELLS =           0.0000                 WELLS =           0.0000

            TOTAL IN =       16076.7227              TOTAL IN =         872.4546

          OUT:                                     OUT:
          ----                                     ----
             STORAGE =       1.1143E-02               STORAGE =           0.0000
       CONSTANT HEAD =        7076.7100         CONSTANT HEAD =         372.4544
               WELLS =        9000.0000                 WELLS =         500.0000

           TOTAL OUT =       16076.7207             TOTAL OUT =         872.4544

            IN - OUT =       1.9531E-03              IN - OUT =       1.8311E-04

 PERCENT DISCREPANCY =           0.00     PERCENT DISCREPANCY =           0.00






          TIME SUMMARY AT END OF TIME STEP  18 IN STRESS PERIOD    2
                    SECONDS     MINUTES      HOURS       DAYS        YEARS
                    -----------------------------------------------------------
   TIME STEP LENGTH  86400.      1440.0      24.000      1.0000     2.73785E-03
 STRESS PERIOD TIME 1.55520E+06  25920.      432.00      18.000     4.92813E-02
         TOTAL TIME 1.64160E+06  27360.      456.00      19.000     5.20192E-02
1
 
 SOLVING FOR HEAD 

 OUTPUT CONTROL FOR STRESS PERIOD    2   TIME STEP  19
    SAVE HEAD FOR ALL LAYERS
    SAVE DRAWDOWN FOR ALL LAYERS
    SAVE BUDGET
    PRINT HEAD FOR ALL LAYERS
    PRINT BUDGET
 UBDSV1 SAVING "         STORAGE" ON UNIT  53 AT TIME STEP 19, STRESS PERIOD   2
 UBDSV2 SAVING "   CONSTANT HEAD" ON UNIT  53 AT TIME STEP 19, STRESS PERIOD   2
 UBDSV1 SAVING "FLOW RIGHT FACE " ON UNIT  53 AT TIME STEP 19, STRESS PERIOD   2
 UBDSV1 SAVING "FLOW FRONT FACE " ON UNIT  53 AT TIME STEP 19, STRESS PERIOD   2
1
              HEAD IN LAYER   1 AT END OF TIME STEP  19 IN STRESS PERIOD    2
  ---------------------------------------------------------------------------

            1           2           3           4           5           6           7           8           9          10
           11          12          13          14          15          16          17          18          19          20
           21          22          23          24          25          26          27          28          29          30
           31          32          33          34          35          36          37          38          39          40
           41          42          43          44          45          46          47          48          49          50
 ........................................................................................................................
   1    10.00       9.953       9.906       9.851       9.808       9.771       9.722       9.655       9.581       9.513    
        9.362       9.174       9.035       8.881       8.716       8.549       8.395       8.217       7.979       7.743    
        7.581       7.396       7.153       6.906       6.686       6.494       6.220       5.971       5.795       5.609    
        5.449       5.343       5.225       5.091       4.962       4.803       4.631       4.399       4.135       3.846    
        3.475       3.099       2.607       2.072       1.670       1.381       1.165      0.9189      0.5394       0.000    
   2    10.00       9.948       9.898       9.852       9.815       9.779       9.725       9.656       9.588       9.496    
        9.349       9.181       9.025       8.884       8.732       8.560       8.377       8.194       7.973       7.734    
        7.558       7.407       7.148       6.882       6.686       6.469       6.206       5.968       5.767       5.592    
        5.455       5.356       5.256       5.112       4.962       4.803       4.606       4.390       4.134       3.804    
        3.457       3.137       2.620       2.088       1.732       1.474       1.225      0.9490      0.5728       0.000    
   3    10.00       9.940       9.898       9.866       9.831       9.794       9.735       9.653       9.571       9.471    
        9.338       9.189       9.039       8.897       8.716       8.502       8.324       8.166       7.962       7.753    
        7.572       7.358       7.104       6.870       6.658       6.416       6.166       5.932       5.724       5.592    
        5.477       5.380       5.280       5.121       4.963       4.795       4.600       4.359       4.073       3.820    
        3.511       3.074       2.570       2.187       1.883       1.582       1.276      0.9618      0.5428       0.000    
   4    10.00       9.940       9.903       9.874       9.850       9.811       9.744       9.649       9.552       9.452    
        9.326       9.192       9.042       8.864       8.643       8.445       8.317       8.140       7.943       7.780    
        7.536       7.266       7.043       6.836       6.631       6.344       6.068       5.883       5.737       5.620    
        5.515       5.413       5.305       5.122       4.926       4.775       4.570       4.320       4.074       3.850    
        3.499       3.016       2.635       2.311       1.984       1.642       1.273      0.9056      0.4639       0.000    
   5    10.00       9.945       9.911       9.882       9.860       9.820       9.749       9.642       9.533       9.434    
        9.327       9.189       8.998       8.791       8.604       8.448       8.289       8.125       7.941       7.713    
        7.432       7.210       7.025       6.814       6.555       6.259       6.031       5.896       5.775       5.659    
        5.538       5.414       5.291       5.117       4.918       4.734       4.549       4.350       4.123       3.828    
        3.429       3.060       2.731       2.404       2.046       1.648       1.184      0.7629      0.3950       0.000    
   6    10.00       9.954       9.921       9.893       9.863       9.819       9.743       9.628       9.533       9.427    
        9.308       9.139       8.930       8.758       8.587       8.410       8.250       8.103       7.898       7.643    
        7.394       7.182       6.994       6.737       6.457       6.231       6.044       5.916       5.786       5.666    
        5.559       5.423       5.268       5.088       4.895       4.737       4.573       4.391       4.151       3.831    
        3.479       3.120       2.784       2.452       2.064       1.582       1.082      0.7177      0.3694       0.000    
   7    10.00       9.960       9.931       9.902       9.869       9.817       9.716       9.605       9.507       9.377    
        9.255       9.077       8.889       8.713       8.539       8.361       8.206       8.072       7.841       7.569    
        7.347       7.134       6.926       6.677       6.438       6.230       6.065       5.919       5.782       5.682    
        5.572       5.425       5.259       5.073       4.904       4.762       4.611       4.420       4.172       3.878    
        3.526       3.156       2.805       2.439       2.055       1.549       1.036      0.6838      0.3235       0.000    
   8    10.00       9.967       9.941       9.909       9.872       9.787       9.665       9.560       9.439       9.316    
        9.181       9.001       8.842       8.665       8.472       8.301       8.167       8.010       7.796       7.534    
        7.279       7.083       6.911       6.658       6.414       6.228       6.043       5.889       5.790       5.696    
        5.566       5.419       5.276       5.108       4.925       4.774       4.658       4.509       4.261       3.919    
        3.532       3.201       2.872       2.445       2.015       1.450      0.9597      0.6700      0.3100       0.000    
   9    10.00       9.974       9.945       9.909       9.847       9.736       9.607       9.485       9.379       9.253    
        9.096       8.936       8.780       8.612       8.415       8.255       8.131       7.950       7.741       7.480    
        7.257       7.065       6.831       6.579       6.372       6.208       6.020       5.883       5.786       5.681    
        5.562       5.426       5.290       5.142       4.983       4.832       4.706       4.572       4.313       3.941    
        3.582       3.284       2.936       2.522       1.886       1.248      0.9144      0.5667      0.2162       0.000    
  10    10.00       9.974       9.944       9.894       9.799       9.668       9.526       9.432       9.332       9.184    
        9.047       8.890       8.735       8.557       8.378       8.234       8.071       7.885       7.668       7.458    
        7.241       6.959       6.720       6.520       6.342       6.195       6.023       5.878       5.783       5.688    
        5.558       5.413       5.290       5.150       5.008       4.901       4.772       4.614       4.317       3.945    
        3.661       3.396       2.995       2.370       1.635       1.173      0.8302      0.5068      0.2528       0.000    
  11    10.00       9.974       9.935       9.857       9.751       9.605       9.480       9.401       9.283       9.157    
        9.027       8.863       8.680       8.491       8.341       8.190       8.041       7.843       7.635       7.429    
        7.135       6.863       6.668       6.486       6.313       6.153       5.993       5.873       5.789       5.697    
        5.552       5.412       5.304       5.176       5.053       4.932       4.787       4.614       4.333       4.031    
        3.729       3.384       2.946       2.258       1.569       1.103      0.7783      0.5903      0.3260       0.000    
  12    10.00       9.973       9.917       9.818       9.680       9.536       9.437       9.359       9.257       9.144    
        9.002       8.829       8.648       8.479       8.327       8.162       7.991       7.794       7.586       7.317    
        7.030       6.821       6.631       6.446       6.259       6.097       5.980       5.883       5.778       5.667    
        5.539       5.426       5.329       5.222       5.109       4.987       4.826       4.612       4.348       4.073    
        3.748       3.370       2.772       2.000       1.415       1.087      0.8646      0.6265      0.3570       0.000    
  13    10.00       9.964       9.878       9.743       9.600       9.477       9.398       9.330       9.244       9.136    
        8.988       8.810       8.643       8.509       8.333       8.131       7.934       7.722       7.495       7.237    
        6.985       6.762       6.559       6.372       6.193       6.070       5.983       5.862       5.729       5.630    
        5.541       5.446       5.356       5.261       5.153       5.042       4.891       4.643       4.367       4.040    
        3.667       3.193       2.501       1.876       1.449       1.169      0.9092      0.6282      0.3102       0.000    
  14    10.00       9.934       9.812       9.664       9.533       9.437       9.384       9.323       9.240       9.123    
        8.961       8.811       8.673       8.533       8.340       8.104       7.893       7.655       7.403       7.138    
        6.897       6.677       6.474       6.289       6.144       6.058       5.958       5.815       5.698       5.616    
        5.547       5.458       5.378       5.286       5.186       5.093       4.916       4.660       4.365       3.958    
        3.518       2.961       2.428       1.970       1.543       1.214      0.9254      0.6288      0.2800       0.000    
  15    10.00       9.877       9.743       9.611       9.507       9.433       9.376       9.318       9.238       9.130    
        8.988       8.842       8.709       8.517       8.297       8.075       7.838       7.593       7.297       7.013    
        6.790       6.578       6.385       6.235       6.122       6.027       5.914       5.776       5.677       5.613    
        5.540       5.463       5.396       5.310       5.212       5.110       4.924       4.676       4.307       3.866    
        3.410       2.907       2.472       1.998       1.638       1.286      0.9368      0.6227      0.2553       0.000    
  16    10.00       9.858       9.712       9.593       9.503       9.437       9.378       9.325       9.248       9.138    
        9.006       8.868       8.710       8.476       8.239       8.057       7.828       7.502       7.165       6.898    
        6.663       6.481       6.325       6.193       6.069       5.979       5.858       5.740       5.657       5.586    
        5.528       5.470       5.395       5.317       5.228       5.112       4.939       4.640       4.236       3.831    
        3.437       2.948       2.457       2.037       1.698       1.328      0.9336      0.5578      0.2099       0.000    
  17    10.00       9.840       9.694       9.598       9.519       9.452       9.394       9.335       9.252       9.150    
        9.030       8.861       8.649       8.402       8.204       8.033       7.765       7.405       7.058       6.797    
        6.600       6.397       6.224       6.093       5.987       5.881       5.770       5.688       5.614       5.560    
        5.524       5.469       5.388       5.307       5.218       5.093       4.889       4.629       4.295       3.864    
        3.409       2.891       2.436       2.065       1.717       1.338      0.9533      0.5810      0.2455       0.000    
  18    10.00       9.831       9.695       9.612       9.541       9.476       9.419       9.348       9.267       9.159    
        9.016       8.821       8.588       8.380       8.187       7.945       7.637       7.311       7.004       6.746    
        6.506       6.246       6.091       5.981       5.887       5.770       5.692       5.622       5.570       5.543    
        5.510       5.458       5.375       5.282       5.188       5.052       4.851       4.634       4.341       3.938    
        3.344       2.791       2.420       2.066       1.770       1.371      0.9473      0.5693      0.2451       0.000    
  19    10.00       9.839       9.725       9.641       9.565       9.500       9.433       9.367       9.293       9.169    
        9.002       8.795       8.566       8.337       8.088       7.829       7.543       7.229       6.922       6.646    
        6.369       6.132       6.005       5.915       5.790       5.683       5.616       5.555       5.533       5.514    
        5.488       5.437       5.343       5.249       5.163       5.053       4.856       4.612       4.314       3.842    
        3.245       2.775       2.404       2.057       1.725       1.314      0.9093      0.5655      0.2664       0.000    
  20    10.00       9.848       9.752       9.677       9.604       9.527       9.448       9.377       9.303       9.177    
        8.998       8.783       8.520       8.225       7.942       7.732       7.444       7.105       6.831       6.555    
        6.305       6.106       5.951       5.818       5.663       5.585       5.535       5.498       5.490       5.479    
        5.463       5.402       5.309       5.238       5.153       5.032       4.807       4.559       4.218       3.691    
        3.177       2.801       2.372       1.976       1.616       1.212      0.9116      0.5613      0.2488       0.000    
  21    10.00       9.870       9.784       9.709       9.628       9.556       9.468       9.392       9.311       9.171    
        8.979       8.720       8.396       8.055       7.790       7.596       7.327       7.075       6.817       6.519    
        6.277       6.059       5.866       5.621       5.490       5.447       5.386       5.406       5.427       5.420    
        5.404       5.350       5.289       5.230       5.143       4.969       4.738       4.519       4.027       3.483    
        3.103       2.700       2.264       1.897       1.516       1.163      0.8252      0.4944      0.2483       0.000    
  22    10.00       9.898       9.808       9.726       9.648       9.579       9.481       9.382       9.289       9.145    
        8.913       8.592       8.229       7.909       7.681       7.478       7.269       7.087       6.806       6.514    
        6.262       5.955       5.614       5.350       5.250       5.153       5.161       5.249       5.286       5.302    
        5.309       5.284       5.259       5.218       5.126       4.927       4.682       4.287       3.737       3.393    
        2.986       2.554       2.165       1.813       1.489       1.070      0.7159      0.4740      0.2664       0.000    
  23    10.00       9.900       9.812       9.739       9.657       9.566       9.455       9.366       9.284       9.105    
        8.822       8.479       8.148       7.869       7.636       7.463       7.267       7.028       6.758       6.525    
        6.179       5.728       5.361       5.089       4.695       4.697       4.902       5.022       5.107       5.181    
        5.210       5.220       5.224       5.193       5.088       4.872       4.512       4.057       3.612       3.196    
        2.814       2.459       2.085       1.807       1.397      0.9724      0.6963      0.4558      0.2366       0.000    
  24    10.00       9.922       9.823       9.726       9.632       9.528       9.428       9.352       9.261       9.050    
        8.729       8.406       8.133       7.890       7.669       7.444       7.203       6.985       6.770       6.497    
        6.083       5.635       5.198       4.389       3.516       4.029       4.519       4.804       4.957       5.079    
        5.137       5.166       5.182       5.138       5.024       4.754       4.351       3.969       3.477       3.036    
        2.738       2.397       2.044       1.689       1.250      0.9021      0.6698      0.4269      0.1883       0.000    
  25    10.00       9.915       9.800       9.682       9.572       9.478       9.402       9.326       9.214       8.995    
        8.658       8.357       8.149       7.924       7.670       7.437       7.211       7.022       6.825       6.478    
        6.002       5.558       4.858       3.535      0.7488       3.442       4.218       4.666       4.895       5.022    
        5.091       5.130       5.135       5.073       4.948       4.661       4.234       3.795       3.395       3.015    
        2.672       2.303       1.902       1.528       1.112      0.8285      0.6672      0.4151      0.1538       0.000    
  26    10.00       9.893       9.746       9.614       9.525       9.449       9.374       9.280       9.148       8.876    
        8.563       8.354       8.155       7.932       7.694       7.471       7.261       7.076       6.831       6.463    
        6.045       5.557       4.946       4.235       3.578       3.932       4.393       4.706       4.892       5.006    
        5.070       5.103       5.086       5.013       4.860       4.541       4.083       3.728       3.400       2.989    
        2.630       2.212       1.752       1.351       1.011      0.8111      0.6313      0.3701      0.1575       0.000    
  27    10.00       9.870       9.713       9.590       9.515       9.416       9.317       9.198       9.020       8.763    
        8.542       8.356       8.154       7.935       7.701       7.525       7.383       7.137       6.829       6.453    
        6.095       5.746       5.262       4.802       4.436       4.499       4.675       4.825       4.940       5.016    
        5.075       5.089       5.057       4.959       4.771       4.422       4.063       3.748       3.368       2.980    
        2.608       2.103       1.578       1.202      0.9653      0.7981      0.6005      0.3914      0.1887       0.000    
  28    10.00       9.852       9.738       9.599       9.472       9.350       9.241       9.101       8.924       8.724    
        8.542       8.374       8.172       7.927       7.720       7.581       7.422       7.147       6.786       6.451    
        6.204       5.948       5.576       5.225       4.998       4.924       4.918       4.960       5.025       5.076    
        5.097       5.086       5.034       4.909       4.678       4.371       4.088       3.723       3.329       2.941    
        2.489       2.015       1.494       1.120      0.9548      0.7951      0.6192      0.4088      0.1895       0.000    
  29    10.00       9.857       9.714       9.567       9.415       9.298       9.174       9.019       8.869       8.711    
        8.548       8.380       8.181       7.973       7.798       7.633       7.420       7.110       6.781       6.523    
        6.317       6.097       5.797       5.489       5.304       5.200       5.132       5.118       5.134       5.132    
        5.114       5.077       5.004       4.852       4.604       4.350       4.095       3.756       3.320       2.829    
        2.417       1.915       1.396       1.104      0.9579      0.8008      0.6146      0.3994      0.1986       0.000    
  30    10.00       9.836       9.692       9.516       9.361       9.253       9.121       8.984       8.868       8.725    
        8.555       8.373       8.189       8.023       7.865       7.678       7.403       7.114       6.855       6.617    
        6.445       6.231       5.961       5.694       5.472       5.372       5.299       5.254       5.214       5.171    
        5.122       5.069       4.974       4.789       4.575       4.380       4.125       3.690       3.159       2.667    
        2.256       1.799       1.405       1.134      0.9799      0.8027      0.6038      0.4187      0.2053       0.000    
  31    10.00       9.814       9.647       9.479       9.340       9.228       9.102       8.980       8.864       8.722    
        8.552       8.365       8.206       8.066       7.914       7.698       7.426       7.182       6.983       6.779    
        6.598       6.360       6.092       5.868       5.640       5.478       5.396       5.320       5.262       5.194    
        5.130       5.054       4.934       4.764       4.566       4.355       3.962       3.491       3.056       2.581    
        2.194       1.740       1.358       1.163      0.9983      0.8315      0.6243      0.4193      0.1987       0.000    
  32    10.00       9.800       9.620       9.476       9.358       9.246       9.114       8.974       8.832       8.697    
        8.526       8.364       8.220       8.063       7.918       7.732       7.523       7.344       7.142       6.932    
        6.750       6.523       6.257       6.023       5.782       5.558       5.456       5.367       5.285       5.191    
        5.111       5.044       4.892       4.698       4.523       4.239       3.768       3.334       2.958       2.528    
        2.080       1.659       1.379       1.230       1.050      0.8389      0.6198      0.3984      0.1987       0.000    
  33    10.00       9.794       9.639       9.523       9.405       9.273       9.113       8.956       8.802       8.646    
        8.504       8.366       8.223       8.072       7.910       7.766       7.613       7.459       7.292       7.085    
        6.868       6.655       6.438       6.166       5.871       5.621       5.481       5.388       5.285       5.176    
        5.093       4.993       4.833       4.660       4.415       4.036       3.568       3.210       2.854       2.359    
        1.955       1.682       1.461       1.283       1.077      0.8555      0.5871      0.3506      0.1579       0.000    
  34    10.00       9.812       9.685       9.576       9.443       9.281       9.111       8.926       8.754       8.623    
        8.496       8.370       8.240       8.082       7.938       7.798       7.664       7.542       7.379       7.163    
        6.957       6.768       6.551       6.264       5.939       5.661       5.490       5.378       5.270       5.151    
        5.048       4.937       4.790       4.577       4.284       3.825       3.381       3.071       2.657       2.226    
        1.981       1.801       1.588       1.358       1.088      0.7759      0.4744      0.2807      0.1163       0.000    
  35    10.00       9.842       9.728       9.617       9.474       9.291       9.095       8.888       8.725       8.613    
        8.527       8.399       8.252       8.083       7.928       7.827       7.729       7.600       7.428       7.223    
        7.028       6.839       6.636       6.302       5.931       5.665       5.482       5.363       5.243       5.108    
        5.010       4.888       4.718       4.437       3.986       3.524       3.239       2.926       2.510       2.255    
        2.085       1.881       1.667       1.443       1.101      0.6596      0.3642      0.2393      0.1214       0.000    
  36    10.00       9.861       9.761       9.654       9.502       9.282       9.042       8.847       8.731       8.645    
        8.527       8.377       8.240       8.089       7.953       7.853       7.757       7.638       7.501       7.308    
        7.103       6.906       6.645       6.275       5.915       5.649       5.480       5.339       5.184       5.063    
        4.946       4.796       4.521       4.107       3.705       3.403       3.144       2.819       2.495       2.329    
        2.157       1.975       1.758       1.468       1.004      0.5551      0.3419      0.2187      0.1124       0.000    
  37    10.00       9.875       9.798       9.681       9.477       9.236       9.023       8.872       8.776       8.671    
        8.515       8.355       8.234       8.103       7.975       7.877       7.785       7.674       7.527       7.352    
        7.185       6.962       6.625       6.272       5.923       5.623       5.413       5.236       5.092       4.974    
        4.839       4.612       4.204       3.843       3.578       3.322       3.061       2.811       2.584       2.399    
        2.234       2.029       1.783       1.403      0.9188      0.5347      0.3200      0.2033      0.1020       0.000    
  38    10.00       9.893       9.799       9.671       9.459       9.210       9.030       8.917       8.816       8.689    
        8.522       8.354       8.235       8.113       7.984       7.884       7.802       7.702       7.552       7.402    
        7.243       6.967       6.575       6.190       5.828       5.530       5.297       5.102       4.967       4.854    
        4.685       4.309       3.966       3.755       3.500       3.254       3.070       2.865       2.658       2.482    
        2.288       2.009       1.697       1.286      0.8062      0.5118      0.3599      0.2242      0.1006       0.000    
  39    10.00       9.891       9.784       9.650       9.445       9.218       9.056       8.955       8.827       8.685    
        8.550       8.380       8.244       8.125       8.000       7.892       7.797       7.695       7.573       7.435    
        7.233       6.925       6.504       6.067       5.696       5.414       5.146       4.944       4.854       4.737    
        4.450       4.090       3.896       3.660       3.428       3.259       3.112       2.926       2.728       2.564    
        2.283       1.889       1.524       1.081      0.7184      0.5542      0.4124      0.2685      0.1381       0.000    
  40    10.00       9.882       9.788       9.650       9.461       9.270       9.110       8.975       8.824       8.693    
        8.590       8.421       8.248       8.127       8.010       7.884       7.778       7.698       7.587       7.406    
        7.163       6.800       6.370       5.957       5.587       5.288       4.974       4.821       4.739       4.580    
        4.324       4.078       3.820       3.583       3.426       3.285       3.146       2.974       2.792       2.578    
        2.198       1.770       1.376       1.018      0.7704      0.6013      0.4601      0.3247      0.1594       0.000    
  41    10.00       9.898       9.822       9.688       9.492       9.292       9.138       9.015       8.866       8.711    
        8.586       8.427       8.264       8.149       8.011       7.860       7.771       7.680       7.526       7.318    
        7.063       6.705       6.272       5.872       5.500       5.094       4.812       4.736       4.641       4.527    
        4.334       4.038       3.784       3.603       3.451       3.326       3.175       3.012       2.825       2.490    
        2.047       1.632       1.291       1.028      0.8132      0.6564      0.5055      0.3571      0.1880       0.000    
  42    10.00       9.923       9.839       9.709       9.539       9.346       9.171       9.044       8.907       8.731    
        8.570       8.417       8.276       8.165       8.016       7.857       7.746       7.618       7.448       7.208    
        6.911       6.518       6.139       5.737       5.248       4.899       4.765       4.703       4.624       4.505    
        4.279       4.022       3.790       3.610       3.490       3.359       3.225       3.050       2.751       2.308    
        1.923       1.615       1.319       1.022      0.8233      0.6899      0.5453      0.3716      0.2062       0.000    
  43    10.00       9.939       9.848       9.713       9.544       9.383       9.226       9.083       8.909       8.724    
        8.575       8.420       8.279       8.175       8.032       7.848       7.696       7.549       7.317       7.014    
        6.727       6.352       6.005       5.541       5.083       4.861       4.758       4.686       4.613       4.488    
        4.274       4.043       3.822       3.650       3.535       3.406       3.231       2.980       2.545       2.155    
        1.915       1.644       1.332       1.025      0.8146      0.6914      0.5800      0.4017      0.1882       0.000    
  44    10.00       9.931       9.853       9.712       9.557       9.441       9.280       9.082       8.884       8.730    
        8.579       8.421       8.297       8.185       8.014       7.811       7.635       7.460       7.186       6.890    
        6.551       6.180       5.813       5.352       5.014       4.851       4.761       4.701       4.621       4.462    
        4.248       4.064       3.871       3.713       3.595       3.415       3.183       2.825       2.386       2.130    
        1.912       1.628       1.318       1.038      0.8240      0.6930      0.5802      0.3934      0.1733       0.000    
  45    10.00       9.917       9.822       9.708       9.595       9.443       9.272       9.080       8.884       8.728    
        8.569       8.425       8.315       8.183       7.994       7.774       7.577       7.379       7.085       6.740    
        6.354       5.966       5.573       5.239       5.007       4.870       4.783       4.718       4.614       4.486    
        4.301       4.093       3.921       3.757       3.587       3.398       3.145       2.765       2.387       2.089    
        1.841       1.575       1.286       1.036      0.8494      0.7409      0.5725      0.3408      0.1553       0.000    
  46    10.00       9.899       9.801       9.709       9.579       9.404       9.237       9.080       8.885       8.717    
        8.576       8.442       8.329       8.169       7.967       7.770       7.560       7.302       6.986       6.613    
        6.163       5.780       5.470       5.218       5.042       4.920       4.812       4.723       4.641       4.499    
        4.302       4.121       3.952       3.761       3.594       3.416       3.131       2.695       2.300       2.035    
        1.803       1.548       1.278       1.058      0.9142      0.7746      0.5189      0.2551      0.1109       0.000    
  47    10.00       9.892       9.792       9.665       9.513       9.369       9.226       9.055       8.877       8.727    
        8.597       8.477       8.315       8.141       7.959       7.767       7.534       7.234       6.941       6.488    
        6.003       5.707       5.441       5.244       5.080       4.960       4.850       4.742       4.647       4.499    
        4.293       4.114       3.942       3.763       3.620       3.404       3.010       2.620       2.291       2.010    
        1.807       1.567       1.326       1.115      0.9360      0.7103      0.4267      0.2230      9.2888E-02   0.000    
  48    10.00       9.880       9.759       9.623       9.486       9.358       9.212       9.056       8.891       8.743    
        8.611       8.468       8.290       8.111       7.932       7.741       7.517       7.235       6.871       6.423    
        6.007       5.703       5.444       5.263       5.130       4.981       4.868       4.778       4.661       4.459    
        4.257       4.083       3.926       3.794       3.605       3.320       2.947       2.597       2.285       2.039    
        1.820       1.591       1.374       1.135      0.8676      0.5769      0.3646      0.2162      9.7697E-02   0.000    
  49    10.00       9.869       9.737       9.604       9.491       9.359       9.205       9.051       8.918       8.763    
        8.605       8.424       8.249       8.099       7.895       7.709       7.522       7.207       6.847       6.492    
        6.052       5.714       5.456       5.298       5.140       4.979       4.892       4.805       4.614       4.372    
        4.200       4.061       3.948       3.776       3.557       3.304       2.931       2.582       2.338       2.076    
        1.818       1.608       1.377       1.096      0.7680      0.5142      0.3646      0.2353      0.1207       0.000    
  50    10.00       9.874       9.742       9.606       9.483       9.353       9.216       9.064       8.924       8.786    
        8.590       8.402       8.242       8.040       7.833       7.691       7.513       7.269       6.913       6.561    
        6.113       5.687       5.463       5.302       5.137       5.006       4.901       4.782       4.556       4.328    
        4.186       4.072       3.940       3.762       3.559       3.317       2.941       2.583       2.346       2.109    
        1.865       1.600       1.340       1.039      0.7159      0.5262      0.3923      0.2659      0.1604       0.000    

 HEAD WILL BE SAVED ON UNIT   51 AT END OF TIME STEP  19, STRESS PERIOD    2

 DRAWDOWN WILL BE SAVED ON UNIT   52 AT END OF TIME STEP  19, STRESS PERIOD    2
1
  VOLUMETRIC BUDGET FOR ENTIRE MODEL AT END OF TIME STEP 19 IN STRESS PERIOD   2
  ------------------------------------------------------------------------------

     CUMULATIVE VOLUMES      L**3       RATES FOR THIS TIME STEP      L**3/T
     ------------------                 ------------------------

           IN:                                      IN:
           ---                                      ---
             STORAGE =        9498.2188               STORAGE =         499.5146
       CONSTANT HEAD =        7450.9570         CONSTANT HEAD =         372.9383
               WELLS =           0.0000                 WELLS =           0.0000

            TOTAL IN =       16949.1758              TOTAL IN =         872.4529

          OUT:                                     OUT:
          ----                                     ----
             STORAGE =       1.1143E-02               STORAGE =           0.0000
       CONSTANT HEAD =        7449.1621         CONSTANT HEAD =         372.4523
               WELLS =        9500.0000                 WELLS =         500.0000

           TOTAL OUT =       16949.1738             TOTAL OUT =         872.4523

            IN - OUT =       1.9531E-03              IN - OUT =       6.1035E-04

 PERCENT DISCREPANCY =           0.00     PERCENT DISCREPANCY =           0.00






          TIME SUMMARY AT END OF TIME STEP  19 IN STRESS PERIOD    2
                    SECONDS     MINUTES      HOURS       DAYS        YEARS
                    -----------------------------------------------------------
   TIME STEP LENGTH  86400.      1440.0      24.000      1.0000     2.73785E-03
 STRESS PERIOD TIME 1.64160E+06  27360.      456.00      19.000     5.20192E-02
         TOTAL TIME 1.72800E+06  28800.      480.00      20.000     5.47570E-02
1
 
 SOLVING FOR HEAD 

 OUTPUT CONTROL FOR STRESS PERIOD    2   TIME STEP  20
    SAVE HEAD FOR ALL LAYERS
    SAVE DRAWDOWN FOR ALL LAYERS
    SAVE BUDGET
    PRINT HEAD FOR ALL LAYERS
    PRINT BUDGET
 UBDSV1 SAVING "         STORAGE" ON UNIT  53 AT TIME STEP 20, STRESS PERIOD   2
 UBDSV2 SAVING "   CONSTANT HEAD" ON UNIT  53 AT TIME STEP 20, STRESS PERIOD   2
 UBDSV1 SAVING "FLOW RIGHT FACE " ON UNIT  53 AT TIME STEP 20, STRESS PERIOD   2
 UBDSV1 SAVING "FLOW FRONT FACE " ON UNIT  53 AT TIME STEP 20, STRESS PERIOD   2
1
              HEAD IN LAYER   1 AT END OF TIME STEP  20 IN STRESS PERIOD    2
  ---------------------------------------------------------------------------

            1           2           3           4           5           6           7           8           9          10
           11          12          13          14          15          16          17          18          19          20
           21          22          23          24          25          26          27          28          29          30
           31          32          33          34          35          36          37          38          39          40
           41          42          43          44          45          46          47          48          49          50
 ........................................................................................................................
   1    10.00       9.953       9.906       9.851       9.808       9.771       9.722       9.655       9.581       9.513    
        9.362       9.174       9.035       8.881       8.716       8.549       8.395       8.217       7.979       7.742    
        7.581       7.396       7.152       6.906       6.686       6.494       6.220       5.971       5.795       5.609    
        5.448       5.342       5.225       5.091       4.962       4.802       4.630       4.399       4.134       3.846    
        3.475       3.099       2.607       2.072       1.670       1.381       1.165      0.9189      0.5393       0.000    
   2    10.00       9.948       9.898       9.852       9.815       9.779       9.725       9.656       9.588       9.496    
        9.349       9.181       9.025       8.884       8.732       8.560       8.377       8.194       7.972       7.734    
        7.558       7.407       7.148       6.881       6.686       6.469       6.206       5.967       5.766       5.591    
        5.454       5.355       5.256       5.111       4.961       4.803       4.605       4.389       4.133       3.804    
        3.457       3.137       2.620       2.088       1.732       1.474       1.225      0.9490      0.5728       0.000    
   3    10.00       9.940       9.898       9.866       9.831       9.794       9.735       9.653       9.571       9.471    
        9.338       9.189       9.039       8.897       8.716       8.502       8.323       8.165       7.962       7.753    
        7.572       7.357       7.104       6.869       6.657       6.415       6.165       5.931       5.723       5.591    
        5.476       5.379       5.279       5.121       4.963       4.795       4.599       4.358       4.072       3.820    
        3.511       3.073       2.570       2.187       1.883       1.582       1.276      0.9618      0.5428       0.000    
   4    10.00       9.940       9.903       9.874       9.850       9.811       9.744       9.649       9.552       9.452    
        9.326       9.192       9.042       8.864       8.643       8.445       8.317       8.139       7.943       7.780    
        7.535       7.266       7.043       6.835       6.630       6.343       6.067       5.881       5.735       5.619    
        5.514       5.412       5.304       5.121       4.926       4.775       4.569       4.319       4.073       3.850    
        3.499       3.016       2.635       2.311       1.984       1.642       1.273      0.9056      0.4639       0.000    
   5    10.00       9.945       9.911       9.882       9.860       9.820       9.749       9.642       9.533       9.434    
        9.327       9.189       8.998       8.791       8.604       8.447       8.289       8.124       7.940       7.713    
        7.432       7.209       7.024       6.813       6.554       6.258       6.030       5.894       5.774       5.657    
        5.537       5.413       5.290       5.116       4.917       4.733       4.548       4.349       4.123       3.827    
        3.429       3.060       2.731       2.404       2.046       1.648       1.184      0.7629      0.3950       0.000    
   6    10.00       9.954       9.921       9.893       9.863       9.819       9.743       9.628       9.533       9.427    
        9.308       9.139       8.930       8.758       8.587       8.409       8.249       8.102       7.898       7.642    
        7.394       7.181       6.993       6.736       6.455       6.229       6.042       5.914       5.784       5.664    
        5.557       5.421       5.266       5.086       4.894       4.735       4.572       4.390       4.150       3.830    
        3.479       3.120       2.783       2.452       2.064       1.582       1.082      0.7177      0.3694       0.000    
   7    10.00       9.960       9.931       9.902       9.869       9.817       9.716       9.605       9.507       9.377    
        9.255       9.077       8.888       8.713       8.538       8.361       8.205       8.071       7.840       7.568    
        7.346       7.133       6.924       6.675       6.435       6.227       6.062       5.916       5.779       5.680    
        5.570       5.422       5.256       5.071       4.902       4.760       4.609       4.419       4.171       3.877    
        3.526       3.155       2.805       2.439       2.055       1.549       1.036      0.6838      0.3235       0.000    
   8    10.00       9.967       9.941       9.909       9.872       9.787       9.665       9.560       9.439       9.316    
        9.181       9.000       8.842       8.665       8.471       8.301       8.166       8.009       7.795       7.532    
        7.277       7.080       6.908       6.655       6.410       6.224       6.039       5.884       5.786       5.692    
        5.563       5.415       5.273       5.105       4.922       4.772       4.656       4.508       4.260       3.918    
        3.532       3.201       2.872       2.444       2.015       1.450      0.9597      0.6700      0.3100       0.000    
   9    10.00       9.974       9.945       9.909       9.847       9.736       9.607       9.485       9.379       9.253    
        9.095       8.936       8.779       8.612       8.414       8.254       8.130       7.948       7.739       7.478    
        7.254       7.062       6.827       6.574       6.367       6.203       6.014       5.878       5.781       5.676    
        5.557       5.422       5.286       5.138       4.979       4.829       4.704       4.569       4.312       3.940    
        3.581       3.284       2.936       2.522       1.886       1.248      0.9144      0.5667      0.2162       0.000    
  10    10.00       9.974       9.944       9.894       9.799       9.668       9.526       9.432       9.331       9.184    
        9.046       8.889       8.735       8.556       8.376       8.233       8.069       7.883       7.665       7.454    
        7.237       6.954       6.715       6.514       6.335       6.188       6.016       5.871       5.776       5.682    
        5.552       5.407       5.284       5.145       5.003       4.897       4.769       4.611       4.315       3.944    
        3.660       3.396       2.994       2.370       1.635       1.173      0.8302      0.5068      0.2528       0.000    
  11    10.00       9.974       9.935       9.857       9.751       9.605       9.480       9.401       9.283       9.157    
        9.026       8.863       8.679       8.490       8.339       8.188       8.038       7.840       7.631       7.425    
        7.129       6.856       6.661       6.478       6.305       6.144       5.984       5.865       5.781       5.689    
        5.544       5.405       5.298       5.170       5.048       4.928       4.783       4.611       4.331       4.030    
        3.728       3.383       2.946       2.258       1.569       1.103      0.7783      0.5903      0.3260       0.000    
  12    10.00       9.973       9.917       9.818       9.680       9.536       9.437       9.359       9.256       9.143    
        9.001       8.829       8.647       8.478       8.325       8.160       7.988       7.790       7.581       7.311    
        7.023       6.813       6.622       6.437       6.249       6.087       5.969       5.873       5.768       5.658    
        5.530       5.418       5.321       5.215       5.103       4.982       4.821       4.608       4.346       4.071    
        3.747       3.370       2.772       2.000       1.415       1.087      0.8646      0.6265      0.3570       0.000    
  13    10.00       9.964       9.878       9.743       9.600       9.477       9.398       9.330       9.243       9.135    
        8.987       8.809       8.642       8.507       8.331       8.129       7.930       7.717       7.489       7.229    
        6.976       6.752       6.548       6.360       6.180       6.058       5.971       5.850       5.717       5.619    
        5.530       5.436       5.347       5.253       5.146       5.036       4.886       4.639       4.365       4.039    
        3.666       3.192       2.501       1.876       1.449       1.169      0.9091      0.6282      0.3102       0.000    
  14    10.00       9.934       9.812       9.664       9.532       9.437       9.384       9.322       9.239       9.123    
        8.960       8.810       8.672       8.532       8.337       8.101       7.889       7.650       7.396       7.129    
        6.886       6.664       6.461       6.275       6.129       6.044       5.944       5.801       5.684       5.603    
        5.535       5.447       5.367       5.277       5.178       5.086       4.911       4.656       4.362       3.956    
        3.517       2.961       2.428       1.970       1.543       1.214      0.9254      0.6288      0.2800       0.000    
  15    10.00       9.877       9.743       9.611       9.506       9.433       9.375       9.318       9.237       9.129    
        8.987       8.841       8.707       8.515       8.293       8.071       7.833       7.586       7.288       7.002    
        6.777       6.563       6.369       6.219       6.106       6.011       5.899       5.761       5.662       5.599    
        5.526       5.450       5.384       5.300       5.203       5.102       4.918       4.672       4.304       3.865    
        3.409       2.906       2.472       1.998       1.638       1.286      0.9367      0.6227      0.2553       0.000    
  16    10.00       9.858       9.712       9.593       9.503       9.437       9.377       9.325       9.247       9.137    
        9.005       8.867       8.708       8.472       8.234       8.051       7.821       7.492       7.153       6.883    
        6.647       6.463       6.307       6.175       6.051       5.962       5.840       5.723       5.641       5.570    
        5.513       5.456       5.383       5.306       5.219       5.104       4.933       4.636       4.233       3.829    
        3.436       2.947       2.456       2.037       1.698       1.328      0.9336      0.5578      0.2099       0.000    
  17    10.00       9.840       9.694       9.598       9.519       9.452       9.394       9.334       9.251       9.149    
        9.028       8.859       8.646       8.397       8.198       8.027       7.756       7.393       7.043       6.780    
        6.582       6.377       6.203       6.072       5.965       5.860       5.749       5.668       5.596       5.542    
        5.508       5.454       5.375       5.295       5.207       5.084       4.882       4.624       4.291       3.862    
        3.407       2.891       2.436       2.065       1.717       1.337      0.9533      0.5810      0.2455       0.000    
  18    10.00       9.831       9.695       9.612       9.540       9.476       9.419       9.347       9.266       9.158    
        9.015       8.818       8.585       8.374       8.180       7.936       7.625       7.297       6.987       6.726    
        6.485       6.223       6.067       5.956       5.863       5.746       5.669       5.599       5.549       5.523    
        5.492       5.441       5.360       5.269       5.176       5.043       4.844       4.628       4.337       3.936    
        3.343       2.791       2.419       2.066       1.770       1.371      0.9473      0.5693      0.2451       0.000    
  19    10.00       9.839       9.725       9.641       9.564       9.500       9.433       9.367       9.292       9.167    
        9.000       8.792       8.562       8.331       8.080       7.818       7.529       7.212       6.902       6.624    
        6.345       6.107       5.979       5.889       5.764       5.657       5.591       5.531       5.509       5.491    
        5.467       5.419       5.328       5.236       5.151       5.043       4.848       4.607       4.310       3.840    
        3.244       2.775       2.404       2.057       1.725       1.314      0.9093      0.5655      0.2664       0.000    
  20    10.00       9.848       9.751       9.677       9.603       9.527       9.448       9.377       9.302       9.176    
        8.996       8.780       8.515       8.218       7.932       7.719       7.429       7.085       6.809       6.531    
        6.280       6.079       5.924       5.790       5.635       5.558       5.509       5.473       5.465       5.455    
        5.441       5.382       5.292       5.223       5.140       5.022       4.799       4.553       4.214       3.689    
        3.176       2.800       2.371       1.976       1.616       1.212      0.9116      0.5613      0.2488       0.000    
  21    10.00       9.870       9.784       9.709       9.628       9.555       9.468       9.391       9.310       9.169    
        8.976       8.717       8.390       8.045       7.778       7.582       7.309       7.055       6.794       6.493    
        6.251       6.032       5.838       5.592       5.460       5.418       5.358       5.378       5.401       5.394    
        5.379       5.327       5.270       5.214       5.129       4.958       4.731       4.514       4.024       3.482    
        3.102       2.699       2.264       1.897       1.516       1.163      0.8251      0.4944      0.2483       0.000    
  22    10.00       9.898       9.807       9.726       9.648       9.579       9.480       9.381       9.288       9.144    
        8.911       8.588       8.222       7.898       7.667       7.461       7.250       7.066       6.782       6.487    
        6.234       5.926       5.584       5.319       5.218       5.122       5.130       5.220       5.257       5.274    
        5.281       5.259       5.237       5.199       5.111       4.917       4.675       4.283       3.735       3.391    
        2.985       2.554       2.165       1.813       1.489       1.070      0.7159      0.4740      0.2664       0.000    
  23    10.00       9.900       9.812       9.739       9.657       9.566       9.454       9.365       9.283       9.103    
        8.819       8.473       8.140       7.857       7.621       7.446       7.247       7.006       6.734       6.499    
        6.150       5.697       5.328       5.056       4.661       4.663       4.869       4.990       5.075       5.150    
        5.180       5.192       5.198       5.172       5.072       4.861       4.506       4.054       3.611       3.196    
        2.813       2.459       2.085       1.807       1.397      0.9724      0.6963      0.4558      0.2366       0.000    
  24    10.00       9.922       9.823       9.726       9.632       9.527       9.428       9.351       9.260       9.048    
        8.725       8.400       8.124       7.879       7.655       7.427       7.183       6.963       6.745       6.470    
        6.053       5.603       5.164       4.354       3.480       3.993       4.484       4.770       4.924       5.047    
        5.106       5.137       5.156       5.115       5.006       4.743       4.346       3.967       3.475       3.035    
        2.738       2.397       2.044       1.689       1.250      0.9021      0.6698      0.4269      0.1883       0.000    
  25    10.00       9.915       9.800       9.682       9.572       9.477       9.401       9.325       9.212       8.993    
        8.654       8.351       8.141       7.914       7.656       7.420       7.191       7.000       6.800       6.450    
        5.971       5.525       4.823       3.498      0.7090       3.404       4.182       4.630       4.861       4.990    
        5.060       5.100       5.108       5.051       4.930       4.650       4.229       3.792       3.393       3.014    
        2.672       2.303       1.902       1.528       1.112      0.8285      0.6672      0.4151      0.1538       0.000    
  26    10.00       9.893       9.746       9.613       9.525       9.449       9.374       9.280       9.146       8.874    
        8.559       8.348       8.147       7.921       7.680       7.454       7.241       7.055       6.807       6.434    
        6.013       5.523       4.910       4.198       3.540       3.894       4.357       4.671       4.857       4.973    
        5.039       5.074       5.060       4.991       4.843       4.530       4.077       3.725       3.398       2.988    
        2.629       2.212       1.752       1.351       1.011      0.8111      0.6313      0.3701      0.1575       0.000    
  27    10.00       9.869       9.713       9.589       9.515       9.415       9.316       9.197       9.018       8.760    
        8.538       8.351       8.146       7.924       7.687       7.509       7.365       7.117       6.804       6.425    
        6.065       5.714       5.228       4.766       4.400       4.462       4.639       4.790       4.906       4.984    
        5.045       5.061       5.032       4.938       4.755       4.412       4.057       3.744       3.366       2.979    
        2.607       2.103       1.578       1.202      0.9653      0.7981      0.6005      0.3914      0.1887       0.000    
  28    10.00       9.852       9.737       9.599       9.471       9.349       9.240       9.100       8.922       8.722    
        8.538       8.369       8.165       7.917       7.707       7.566       7.405       7.127       6.762       6.424    
        6.175       5.917       5.543       5.191       4.963       4.889       4.884       4.926       4.993       5.045    
        5.069       5.059       5.011       4.889       4.664       4.362       4.082       3.719       3.327       2.940    
        2.488       2.015       1.494       1.120      0.9548      0.7951      0.6192      0.4088      0.1895       0.000    
  29    10.00       9.857       9.714       9.567       9.414       9.297       9.173       9.018       8.867       8.708    
        8.544       8.375       8.174       7.964       7.786       7.619       7.403       7.090       6.757       6.497    
        6.290       6.067       5.766       5.456       5.270       5.166       5.099       5.086       5.104       5.104    
        5.087       5.053       4.982       4.835       4.592       4.342       4.088       3.752       3.318       2.828    
        2.417       1.915       1.396       1.104      0.9579      0.8008      0.6145      0.3994      0.1986       0.000    
  30    10.00       9.836       9.692       9.515       9.360       9.253       9.120       8.983       8.866       8.722    
        8.552       8.368       8.182       8.014       7.855       7.665       7.387       7.095       6.833       6.593    
        6.418       6.203       5.931       5.663       5.440       5.340       5.269       5.225       5.186       5.145    
        5.098       5.046       4.954       4.774       4.563       4.371       4.119       3.687       3.157       2.667    
        2.256       1.799       1.404       1.134      0.9799      0.8027      0.6038      0.4187      0.2053       0.000    
  31    10.00       9.814       9.647       9.479       9.339       9.227       9.101       8.979       8.862       8.719    
        8.548       8.360       8.200       8.058       7.905       7.687       7.412       7.164       6.963       6.756    
        6.574       6.333       6.065       5.840       5.611       5.449       5.369       5.294       5.236       5.171    
        5.108       5.034       4.916       4.750       4.555       4.347       3.957       3.488       3.055       2.581    
        2.194       1.740       1.358       1.163      0.9983      0.8315      0.6243      0.4193      0.1987       0.000    
  32    10.00       9.800       9.620       9.476       9.358       9.245       9.113       8.973       8.830       8.694    
        8.523       8.359       8.214       8.056       7.910       7.722       7.511       7.329       7.125       6.913    
        6.728       6.500       6.233       5.997       5.756       5.532       5.431       5.343       5.262       5.170    
        5.091       5.025       4.876       4.686       4.513       4.232       3.764       3.332       2.957       2.528    
        2.079       1.659       1.379       1.230       1.050      0.8389      0.6197      0.3984      0.1987       0.000    
  33    10.00       9.794       9.639       9.523       9.405       9.273       9.112       8.955       8.800       8.644    
        8.501       8.362       8.218       8.066       7.903       7.757       7.602       7.447       7.278       7.069    
        6.851       6.637       6.417       6.144       5.848       5.598       5.459       5.367       5.265       5.158    
        5.075       4.977       4.819       4.649       4.406       4.030       3.565       3.208       2.853       2.359    
        1.955       1.682       1.461       1.283       1.077      0.8555      0.5871      0.3506      0.1579       0.000    
  34    10.00       9.812       9.685       9.575       9.443       9.280       9.110       8.924       8.752       8.621    
        8.493       8.366       8.235       8.077       7.932       7.790       7.655       7.531       7.367       7.149    
        6.942       6.752       6.534       6.245       5.920       5.641       5.471       5.359       5.253       5.134    
        5.033       4.923       4.778       4.567       4.277       3.821       3.379       3.070       2.656       2.226    
        1.980       1.801       1.588       1.358       1.088      0.7759      0.4744      0.2807      0.1163       0.000    
  35    10.00       9.842       9.728       9.616       9.474       9.290       9.094       8.887       8.723       8.610    
        8.525       8.396       8.248       8.078       7.922       7.820       7.722       7.591       7.418       7.211    
        7.015       6.826       6.621       6.287       5.915       5.648       5.466       5.347       5.227       5.094    
        4.996       4.876       4.707       4.429       3.981       3.522       3.237       2.925       2.509       2.255    
        2.085       1.881       1.667       1.443       1.101      0.6596      0.3642      0.2393      0.1214       0.000    
  36    10.00       9.861       9.761       9.654       9.501       9.281       9.041       8.846       8.729       8.643    
        8.525       8.374       8.236       8.084       7.948       7.847       7.750       7.630       7.493       7.298    
        7.093       6.894       6.633       6.263       5.902       5.636       5.466       5.326       5.171       5.051    
        4.934       4.785       4.513       4.101       3.702       3.401       3.142       2.818       2.495       2.329    
        2.157       1.974       1.758       1.468       1.004      0.5551      0.3419      0.2187      0.1124       0.000    
  37    10.00       9.875       9.797       9.681       9.477       9.235       9.023       8.871       8.774       8.669    
        8.513       8.352       8.231       8.099       7.971       7.872       7.779       7.668       7.520       7.345    
        7.177       6.953       6.616       6.263       5.913       5.613       5.402       5.226       5.082       4.964    
        4.829       4.604       4.199       3.840       3.576       3.321       3.060       2.810       2.584       2.399    
        2.234       2.029       1.783       1.403      0.9188      0.5347      0.3200      0.2033      0.1020       0.000    
  38    10.00       9.893       9.799       9.671       9.459       9.209       9.029       8.916       8.815       8.687    
        8.521       8.352       8.233       8.110       7.980       7.879       7.797       7.697       7.546       7.396    
        7.236       6.961       6.569       6.183       5.821       5.523       5.289       5.095       4.961       4.848    
        4.678       4.304       3.963       3.753       3.499       3.253       3.069       2.864       2.658       2.482    
        2.288       2.009       1.697       1.286      0.8062      0.5118      0.3599      0.2242      0.1006       0.000    
  39    10.00       9.891       9.784       9.650       9.444       9.218       9.055       8.954       8.826       8.684    
        8.548       8.378       8.242       8.123       7.996       7.888       7.793       7.691       7.569       7.431    
        7.229       6.921       6.500       6.064       5.692       5.410       5.142       4.939       4.849       4.732    
        4.446       4.087       3.894       3.658       3.427       3.259       3.111       2.925       2.728       2.563    
        2.282       1.889       1.524       1.081      0.7184      0.5542      0.4124      0.2685      0.1381       0.000    
  40    10.00       9.882       9.788       9.650       9.461       9.270       9.110       8.974       8.823       8.692    
        8.589       8.420       8.246       8.124       8.008       7.881       7.775       7.694       7.584       7.403    
        7.160       6.798       6.368       5.955       5.584       5.285       4.972       4.818       4.736       4.577    
        4.322       4.076       3.818       3.582       3.426       3.284       3.145       2.973       2.792       2.577    
        2.198       1.770       1.376       1.018      0.7704      0.6013      0.4601      0.3247      0.1594       0.000    
  41    10.00       9.898       9.822       9.688       9.492       9.292       9.138       9.015       8.865       8.710    
        8.585       8.425       8.262       8.148       8.009       7.857       7.769       7.677       7.523       7.316    
        7.061       6.703       6.271       5.871       5.498       5.093       4.811       4.734       4.639       4.525    
        4.333       4.037       3.783       3.602       3.450       3.326       3.175       3.012       2.825       2.490    
        2.047       1.632       1.291       1.028      0.8132      0.6563      0.5055      0.3570      0.1880       0.000    
  42    10.00       9.923       9.839       9.709       9.539       9.346       9.171       9.044       8.907       8.731    
        8.569       8.416       8.275       8.164       8.014       7.856       7.744       7.616       7.446       7.207    
        6.910       6.518       6.139       5.737       5.248       4.898       4.764       4.701       4.622       4.504    
        4.278       4.021       3.790       3.609       3.489       3.358       3.225       3.050       2.751       2.308    
        1.923       1.615       1.319       1.022      0.8233      0.6899      0.5453      0.3716      0.2062       0.000    
  43    10.00       9.939       9.848       9.713       9.544       9.383       9.226       9.082       8.909       8.724    
        8.575       8.419       8.279       8.174       8.031       7.847       7.695       7.548       7.316       7.013    
        6.727       6.351       6.005       5.541       5.083       4.860       4.757       4.685       4.612       4.487    
        4.273       4.042       3.822       3.649       3.535       3.406       3.231       2.980       2.545       2.155    
        1.915       1.644       1.332       1.025      0.8146      0.6914      0.5800      0.4017      0.1882       0.000    
  44    10.00       9.931       9.853       9.712       9.557       9.440       9.280       9.081       8.884       8.730    
        8.579       8.420       8.296       8.184       8.014       7.811       7.634       7.459       7.186       6.889    
        6.551       6.180       5.812       5.352       5.014       4.850       4.761       4.700       4.620       4.462    
        4.248       4.063       3.871       3.712       3.595       3.415       3.183       2.825       2.386       2.130    
        1.912       1.628       1.318       1.038      0.8240      0.6930      0.5802      0.3934      0.1733       0.000    
  45    10.00       9.917       9.822       9.708       9.594       9.443       9.272       9.080       8.884       8.727    
        8.569       8.425       8.315       8.183       7.994       7.774       7.577       7.379       7.085       6.740    
        6.354       5.966       5.573       5.238       5.007       4.869       4.782       4.717       4.613       4.485    
        4.301       4.093       3.921       3.757       3.587       3.398       3.145       2.765       2.387       2.089    
        1.841       1.575       1.286       1.036      0.8494      0.7409      0.5725      0.3408      0.1553       0.000    
  46    10.00       9.899       9.801       9.709       9.579       9.404       9.237       9.080       8.885       8.717    
        8.576       8.442       8.329       8.169       7.967       7.770       7.560       7.302       6.986       6.613    
        6.163       5.780       5.470       5.218       5.042       4.920       4.812       4.722       4.640       4.498    
        4.302       4.121       3.952       3.761       3.594       3.416       3.131       2.695       2.300       2.035    
        1.803       1.548       1.278       1.058      0.9142      0.7746      0.5189      0.2551      0.1109       0.000    
  47    10.00       9.892       9.792       9.665       9.513       9.369       9.226       9.055       8.877       8.727    
        8.597       8.477       8.315       8.141       7.959       7.767       7.533       7.234       6.941       6.488    
        6.003       5.707       5.441       5.244       5.080       4.960       4.849       4.741       4.646       4.499    
        4.293       4.114       3.942       3.763       3.620       3.404       3.010       2.620       2.291       2.010    
        1.807       1.567       1.326       1.115      0.9360      0.7103      0.4267      0.2230      9.2888E-02   0.000    
  48    10.00       9.880       9.759       9.623       9.486       9.358       9.212       9.056       8.891       8.743    
        8.611       8.468       8.290       8.111       7.932       7.741       7.517       7.235       6.871       6.423    
        6.007       5.703       5.444       5.263       5.130       4.981       4.868       4.778       4.660       4.459    
        4.257       4.083       3.926       3.794       3.605       3.320       2.947       2.597       2.285       2.039    
        1.820       1.591       1.374       1.135      0.8676      0.5769      0.3646      0.2162      9.7697E-02   0.000    
  49    10.00       9.869       9.737       9.604       9.491       9.359       9.205       9.051       8.918       8.763    
        8.605       8.424       8.249       8.099       7.895       7.709       7.522       7.207       6.847       6.492    
        6.052       5.714       5.456       5.298       5.140       4.979       4.892       4.804       4.613       4.372    
        4.200       4.061       3.948       3.776       3.557       3.304       2.931       2.582       2.338       2.076    
        1.818       1.608       1.377       1.096      0.7680      0.5142      0.3646      0.2353      0.1207       0.000    
  50    10.00       9.874       9.742       9.606       9.483       9.353       9.216       9.064       8.924       8.786    
        8.590       8.402       8.242       8.040       7.833       7.691       7.513       7.269       6.913       6.561    
        6.113       5.687       5.463       5.302       5.137       5.006       4.901       4.782       4.556       4.328    
        4.186       4.072       3.940       3.761       3.559       3.317       2.941       2.583       2.346       2.109    
        1.865       1.600       1.340       1.039      0.7159      0.5262      0.3923      0.2659      0.1604       0.000    

 HEAD WILL BE SAVED ON UNIT   51 AT END OF TIME STEP  20, STRESS PERIOD    2

 DRAWDOWN WILL BE SAVED ON UNIT   52 AT END OF TIME STEP  20, STRESS PERIOD    2
1
  VOLUMETRIC BUDGET FOR ENTIRE MODEL AT END OF TIME STEP 20 IN STRESS PERIOD   2
  ------------------------------------------------------------------------------

     CUMULATIVE VOLUMES      L**3       RATES FOR THIS TIME STEP      L**3/T
     ------------------                 ------------------------

           IN:                                      IN:
           ---                                      ---
             STORAGE =        9997.6006               STORAGE =         499.3820
       CONSTANT HEAD =        7824.0244         CONSTANT HEAD =         373.0675
               WELLS =           0.0000                 WELLS =           0.0000

            TOTAL IN =       17821.6250              TOTAL IN =         872.4496

          OUT:                                     OUT:
          ----                                     ----
             STORAGE =       1.1143E-02               STORAGE =           0.0000
       CONSTANT HEAD =        7821.6113         CONSTANT HEAD =         372.4494
               WELLS =       10000.0000                 WELLS =         500.0000

           TOTAL OUT =       17821.6230             TOTAL OUT =         872.4494

            IN - OUT =       1.9531E-03              IN - OUT =       1.8311E-04

 PERCENT DISCREPANCY =           0.00     PERCENT DISCREPANCY =           0.00






          TIME SUMMARY AT END OF TIME STEP  20 IN STRESS PERIOD    2
                    SECONDS     MINUTES      HOURS       DAYS        YEARS
                    -----------------------------------------------------------
   TIME STEP LENGTH  86400.      1440.0      24.000      1.0000     2.73785E-03
 STRESS PERIOD TIME 1.72800E+06  28800.      480.00      20.000     5.47570E-02
         TOTAL TIME 1.81440E+06  30240.      504.00      21.000     5.74949E-02
1
 
 SOLVING FOR HEAD 

 OUTPUT CONTROL FOR STRESS PERIOD    2   TIME STEP  21
    SAVE HEAD FOR ALL LAYERS
    SAVE DRAWDOWN FOR ALL LAYERS
    SAVE BUDGET
    PRINT HEAD FOR ALL LAYERS
    PRINT BUDGET
 UBDSV1 SAVING "         STORAGE" ON UNIT  53 AT TIME STEP 21, STRESS PERIOD   2
 UBDSV2 SAVING "   CONSTANT HEAD" ON UNIT  53 AT TIME STEP 21, STRESS PERIOD   2
 UBDSV1 SAVING "FLOW RIGHT FACE " ON UNIT  53 AT TIME STEP 21, STRESS PERIOD   2
 UBDSV1 SAVING "FLOW FRONT FACE " ON UNIT  53 AT TIME STEP 21, STRESS PERIOD   2
1
              HEAD IN LAYER   1 AT END OF TIME STEP  21 IN STRESS PERIOD    2
  ---------------------------------------------------------------------------

            1           2           3           4           5           6           7           8           9          10
           11          12          13          14          15          16          17          18          19          20
           21          22          23          24          25          26          27          28          29          30
           31          32          33          34          35          36          37          38          39          40
           41          42          43          44          45          46          47          48          49          50
 ........................................................................................................................
   1    10.00       9.953       9.906       9.851       9.808       9.771       9.722       9.655       9.581       9.513    
        9.362       9.174       9.035       8.881       8.716       8.549       8.394       8.216       7.978       7.742    
        7.581       7.396       7.152       6.906       6.685       6.493       6.219       5.970       5.794       5.608    
        5.447       5.341       5.224       5.090       4.961       4.802       4.630       4.399       4.134       3.845    
        3.475       3.099       2.607       2.072       1.670       1.381       1.165      0.9189      0.5393       0.000    
   2    10.00       9.948       9.898       9.852       9.815       9.779       9.725       9.656       9.588       9.496    
        9.349       9.181       9.025       8.884       8.732       8.560       8.377       8.194       7.972       7.734    
        7.558       7.407       7.147       6.881       6.685       6.468       6.205       5.966       5.765       5.590    
        5.453       5.354       5.255       5.111       4.961       4.802       4.605       4.389       4.133       3.804    
        3.457       3.136       2.620       2.088       1.732       1.474       1.225      0.9490      0.5728       0.000    
   3    10.00       9.940       9.898       9.866       9.831       9.794       9.735       9.653       9.571       9.471    
        9.338       9.189       9.039       8.897       8.716       8.502       8.323       8.165       7.962       7.752    
        7.572       7.357       7.103       6.869       6.656       6.414       6.164       5.930       5.722       5.589    
        5.475       5.378       5.278       5.120       4.962       4.794       4.599       4.358       4.072       3.820    
        3.511       3.073       2.570       2.187       1.883       1.582       1.276      0.9618      0.5428       0.000    
   4    10.00       9.940       9.903       9.874       9.850       9.811       9.744       9.649       9.552       9.452    
        9.326       9.192       9.042       8.864       8.643       8.445       8.317       8.139       7.943       7.780    
        7.535       7.265       7.042       6.834       6.629       6.342       6.066       5.880       5.734       5.618    
        5.512       5.411       5.303       5.120       4.925       4.774       4.568       4.319       4.073       3.849    
        3.499       3.016       2.634       2.311       1.984       1.642       1.273      0.9056      0.4639       0.000    
   5    10.00       9.945       9.911       9.882       9.860       9.820       9.749       9.642       9.533       9.434    
        9.327       9.189       8.998       8.791       8.604       8.447       8.289       8.124       7.940       7.712    
        7.431       7.208       7.023       6.812       6.552       6.256       6.028       5.893       5.772       5.655    
        5.535       5.411       5.288       5.114       4.916       4.732       4.547       4.348       4.122       3.827    
        3.429       3.059       2.731       2.404       2.046       1.648       1.184      0.7629      0.3950       0.000    
   6    10.00       9.954       9.921       9.893       9.863       9.819       9.743       9.628       9.533       9.427    
        9.308       9.139       8.930       8.758       8.587       8.409       8.249       8.102       7.897       7.642    
        7.392       7.179       6.991       6.734       6.453       6.227       6.040       5.912       5.782       5.662    
        5.555       5.419       5.264       5.085       4.892       4.734       4.570       4.389       4.149       3.830    
        3.478       3.120       2.783       2.452       2.064       1.582       1.082      0.7177      0.3694       0.000    
   7    10.00       9.960       9.931       9.902       9.869       9.817       9.716       9.605       9.507       9.377    
        9.255       9.077       8.888       8.712       8.538       8.360       8.204       8.071       7.839       7.567    
        7.344       7.131       6.922       6.672       6.433       6.224       6.059       5.913       5.776       5.677    
        5.567       5.420       5.254       5.069       4.900       4.758       4.608       4.418       4.170       3.876    
        3.525       3.155       2.805       2.439       2.055       1.549       1.036      0.6838      0.3235       0.000    
   8    10.00       9.967       9.941       9.909       9.872       9.787       9.665       9.560       9.439       9.315    
        9.181       9.000       8.841       8.664       8.471       8.300       8.165       8.008       7.793       7.530    
        7.274       7.078       6.905       6.652       6.406       6.220       6.035       5.880       5.781       5.688    
        5.559       5.412       5.269       5.102       4.919       4.769       4.653       4.506       4.258       3.917    
        3.531       3.200       2.871       2.444       2.015       1.450      0.9597      0.6700      0.3100       0.000    
   9    10.00       9.974       9.945       9.909       9.847       9.736       9.607       9.485       9.379       9.252    
        9.095       8.935       8.779       8.611       8.413       8.253       8.128       7.946       7.737       7.475    
        7.251       7.058       6.822       6.569       6.362       6.197       6.009       5.872       5.775       5.670    
        5.551       5.416       5.281       5.134       4.975       4.826       4.701       4.567       4.310       3.938    
        3.581       3.283       2.935       2.522       1.886       1.248      0.9144      0.5667      0.2162       0.000    
  10    10.00       9.974       9.944       9.894       9.799       9.668       9.526       9.431       9.331       9.183    
        9.046       8.889       8.734       8.555       8.375       8.231       8.067       7.880       7.662       7.451    
        7.233       6.949       6.709       6.507       6.329       6.181       6.008       5.863       5.769       5.675    
        5.546       5.401       5.278       5.140       4.999       4.893       4.765       4.609       4.313       3.942    
        3.659       3.395       2.994       2.370       1.635       1.173      0.8302      0.5068      0.2528       0.000    
  11    10.00       9.974       9.935       9.857       9.751       9.605       9.480       9.401       9.282       9.157    
        9.026       8.862       8.678       8.488       8.338       8.186       8.036       7.836       7.627       7.420    
        7.124       6.849       6.653       6.470       6.297       6.135       5.975       5.856       5.773       5.681    
        5.537       5.398       5.291       5.164       5.043       4.923       4.779       4.608       4.329       4.028    
        3.727       3.382       2.945       2.258       1.569       1.103      0.7783      0.5903      0.3260       0.000    
  12    10.00       9.973       9.917       9.818       9.680       9.536       9.437       9.359       9.256       9.143    
        9.001       8.828       8.645       8.476       8.323       8.157       7.985       7.786       7.576       7.305    
        7.015       6.804       6.612       6.427       6.238       6.076       5.958       5.863       5.758       5.648    
        5.520       5.409       5.313       5.208       5.097       4.976       4.817       4.605       4.343       4.069    
        3.746       3.369       2.771       2.000       1.415       1.087      0.8645      0.6265      0.3570       0.000    
  13    10.00       9.964       9.878       9.743       9.600       9.477       9.398       9.329       9.243       9.134    
        8.986       8.808       8.640       8.505       8.328       8.126       7.927       7.712       7.483       7.221    
        6.967       6.742       6.537       6.348       6.168       6.045       5.959       5.838       5.706       5.607    
        5.519       5.426       5.337       5.244       5.139       5.030       4.881       4.636       4.362       4.037    
        3.665       3.191       2.501       1.875       1.449       1.169      0.9091      0.6282      0.3102       0.000    
  14    10.00       9.934       9.812       9.664       9.532       9.436       9.384       9.322       9.239       9.122    
        8.959       8.809       8.670       8.530       8.335       8.098       7.885       7.644       7.388       7.120    
        6.875       6.652       6.447       6.261       6.115       6.030       5.930       5.788       5.671       5.591    
        5.523       5.436       5.357       5.267       5.170       5.078       4.905       4.652       4.359       3.954    
        3.516       2.960       2.428       1.969       1.543       1.214      0.9254      0.6288      0.2800       0.000    
  15    10.00       9.877       9.742       9.611       9.506       9.433       9.375       9.317       9.236       9.129    
        8.986       8.839       8.705       8.513       8.290       8.066       7.827       7.579       7.278       6.990    
        6.763       6.548       6.353       6.204       6.090       5.996       5.883       5.746       5.648       5.585    
        5.513       5.438       5.373       5.289       5.194       5.094       4.912       4.667       4.301       3.863    
        3.408       2.906       2.472       1.997       1.638       1.286      0.9367      0.6227      0.2553       0.000    
  16    10.00       9.858       9.712       9.592       9.503       9.436       9.377       9.324       9.247       9.136    
        9.004       8.865       8.705       8.469       8.230       8.045       7.814       7.483       7.141       6.869    
        6.630       6.446       6.289       6.157       6.033       5.944       5.823       5.706       5.625       5.555    
        5.498       5.442       5.370       5.295       5.209       5.095       4.925       4.631       4.230       3.827    
        3.435       2.947       2.456       2.037       1.698       1.328      0.9336      0.5578      0.2099       0.000    
  17    10.00       9.839       9.694       9.598       9.518       9.451       9.393       9.334       9.251       9.148    
        9.027       8.857       8.643       8.393       8.192       8.020       7.747       7.381       7.028       6.763    
        6.563       6.358       6.182       6.051       5.945       5.839       5.729       5.649       5.577       5.525    
        5.492       5.439       5.362       5.283       5.196       5.075       4.875       4.618       4.287       3.859    
        3.406       2.890       2.435       2.064       1.717       1.337      0.9532      0.5810      0.2455       0.000    
  18    10.00       9.831       9.694       9.612       9.540       9.476       9.418       9.347       9.265       9.156    
        9.013       8.816       8.581       8.369       8.173       7.928       7.614       7.282       6.969       6.707    
        6.464       6.200       6.044       5.933       5.839       5.723       5.646       5.577       5.528       5.504    
        5.474       5.425       5.346       5.257       5.165       5.033       4.836       4.622       4.332       3.933    
        3.341       2.790       2.419       2.066       1.770       1.371      0.9473      0.5693      0.2451       0.000    
  19    10.00       9.839       9.725       9.640       9.564       9.499       9.432       9.366       9.291       9.166    
        8.998       8.789       8.557       8.324       8.071       7.808       7.516       7.195       6.882       6.602    
        6.321       6.082       5.954       5.864       5.739       5.633       5.567       5.507       5.486       5.470    
        5.447       5.401       5.312       5.222       5.139       5.032       4.839       4.600       4.306       3.837    
        3.243       2.774       2.404       2.057       1.725       1.314      0.9092      0.5655      0.2664       0.000    
  20    10.00       9.848       9.751       9.677       9.603       9.526       9.447       9.376       9.301       9.175    
        8.994       8.777       8.510       8.210       7.922       7.707       7.413       7.066       6.788       6.508    
        6.254       6.053       5.898       5.764       5.608       5.531       5.483       5.448       5.441       5.432    
        5.418       5.362       5.275       5.208       5.127       5.011       4.791       4.547       4.210       3.687    
        3.175       2.800       2.371       1.976       1.616       1.212      0.9116      0.5613      0.2488       0.000    
  21    10.00       9.870       9.784       9.708       9.628       9.555       9.467       9.390       9.309       9.168    
        8.974       8.713       8.383       8.036       7.765       7.567       7.291       7.035       6.771       6.469    
        6.225       6.005       5.811       5.564       5.432       5.390       5.330       5.352       5.375       5.369    
        5.355       5.305       5.251       5.197       5.115       4.948       4.723       4.508       4.021       3.480    
        3.101       2.699       2.264       1.897       1.516       1.163      0.8251      0.4944      0.2483       0.000    
  22    10.00       9.898       9.807       9.726       9.648       9.579       9.480       9.380       9.287       9.142    
        8.908       8.583       8.213       7.887       7.653       7.445       7.232       7.045       6.759       6.462    
        6.207       5.897       5.554       5.289       5.188       5.092       5.100       5.191       5.228       5.246    
        5.255       5.234       5.215       5.180       5.095       4.906       4.667       4.279       3.733       3.390    
        2.985       2.554       2.165       1.813       1.489       1.070      0.7159      0.4740      0.2664       0.000    
  23    10.00       9.900       9.812       9.738       9.657       9.565       9.454       9.364       9.282       9.101    
        8.816       8.467       8.131       7.845       7.606       7.430       7.229       6.985       6.710       6.473    
        6.122       5.666       5.297       5.024       4.629       4.631       4.838       4.959       5.045       5.121    
        5.152       5.165       5.174       5.151       5.056       4.850       4.500       4.051       3.609       3.195    
        2.813       2.458       2.085       1.807       1.397      0.9723      0.6963      0.4558      0.2366       0.000    
  24    10.00       9.922       9.822       9.726       9.631       9.527       9.427       9.350       9.259       9.046    
        8.722       8.393       8.115       7.867       7.641       7.410       7.163       6.940       6.721       6.444    
        6.024       5.571       5.132       4.320       3.445       3.959       4.450       4.737       4.892       5.016    
        5.076       5.109       5.129       5.093       4.989       4.732       4.340       3.964       3.474       3.035    
        2.737       2.397       2.044       1.689       1.250      0.9021      0.6698      0.4269      0.1883       0.000    
  25    10.00       9.915       9.800       9.682       9.571       9.477       9.401       9.324       9.211       8.991    
        8.650       8.345       8.132       7.902       7.641       7.402       7.171       6.978       6.776       6.423    
        5.941       5.493       4.789       3.462      0.6709       3.369       4.147       4.596       4.828       4.958    
        5.030       5.071       5.082       5.028       4.913       4.639       4.223       3.789       3.392       3.013    
        2.672       2.303       1.902       1.528       1.112      0.8285      0.6672      0.4151      0.1538       0.000    
  26    10.00       9.893       9.746       9.613       9.525       9.448       9.373       9.279       9.145       8.872    
        8.555       8.342       8.139       7.910       7.667       7.438       7.222       7.033       6.782       6.407    
        5.983       5.491       4.876       4.163       3.504       3.859       4.322       4.637       4.824       4.942    
        5.008       5.045       5.034       4.969       4.826       4.519       4.072       3.721       3.397       2.987    
        2.629       2.211       1.752       1.351       1.011      0.8111      0.6313      0.3701      0.1575       0.000    
  27    10.00       9.869       9.712       9.589       9.514       9.414       9.315       9.196       9.017       8.757    
        8.533       8.345       8.138       7.914       7.674       7.493       7.348       7.096       6.780       6.397    
        6.035       5.682       5.195       4.732       4.365       4.427       4.604       4.757       4.873       4.952    
        5.015       5.034       5.008       4.917       4.739       4.402       4.051       3.740       3.364       2.978    
        2.607       2.103       1.578       1.202      0.9652      0.7981      0.6005      0.3914      0.1887       0.000    
  28    10.00       9.852       9.737       9.598       9.471       9.349       9.239       9.098       8.920       8.718    
        8.533       8.363       8.157       7.906       7.694       7.551       7.388       7.107       6.738       6.398    
        6.146       5.887       5.511       5.158       4.929       4.855       4.850       4.893       4.961       5.015    
        5.041       5.033       4.987       4.870       4.650       4.352       4.076       3.715       3.325       2.938    
        2.488       2.015       1.493       1.120      0.9548      0.7951      0.6192      0.4088      0.1895       0.000    
  29    10.00       9.857       9.714       9.567       9.414       9.296       9.172       9.016       8.865       8.705    
        8.539       8.369       8.166       7.954       7.774       7.605       7.387       7.070       6.734       6.472    
        6.263       6.039       5.736       5.425       5.238       5.134       5.067       5.055       5.075       5.077    
        5.061       5.029       4.961       4.817       4.579       4.332       4.082       3.748       3.315       2.827    
        2.416       1.915       1.396       1.104      0.9579      0.8008      0.6145      0.3994      0.1986       0.000    
  30    10.00       9.836       9.691       9.515       9.360       9.252       9.119       8.981       8.864       8.719    
        8.548       8.362       8.175       8.006       7.845       7.653       7.371       7.076       6.811       6.569    
        6.393       6.176       5.902       5.633       5.409       5.310       5.240       5.197       5.160       5.120    
        5.074       5.024       4.934       4.758       4.551       4.361       4.112       3.683       3.156       2.666    
        2.255       1.798       1.404       1.134      0.9799      0.8027      0.6038      0.4187      0.2053       0.000    
  31    10.00       9.814       9.647       9.478       9.338       9.226       9.100       8.977       8.860       8.717    
        8.545       8.355       8.193       8.051       7.896       7.676       7.397       7.147       6.944       6.734    
        6.550       6.308       6.038       5.812       5.582       5.421       5.342       5.268       5.212       5.147    
        5.086       5.013       4.898       4.735       4.544       4.338       3.952       3.485       3.053       2.580    
        2.194       1.740       1.358       1.163      0.9982      0.8315      0.6243      0.4193      0.1987       0.000    
  32    10.00       9.800       9.620       9.475       9.357       9.244       9.112       8.971       8.828       8.691    
        8.519       8.355       8.209       8.049       7.902       7.712       7.499       7.315       7.108       6.893    
        6.708       6.478       6.209       5.972       5.731       5.507       5.407       5.320       5.239       5.149    
        5.072       5.007       4.861       4.673       4.502       4.224       3.759       3.330       2.956       2.527    
        2.079       1.659       1.379       1.229       1.049      0.8388      0.6197      0.3984      0.1987       0.000    
  33    10.00       9.793       9.639       9.523       9.404       9.272       9.111       8.953       8.798       8.641    
        8.497       8.358       8.212       8.059       7.895       7.748       7.592       7.435       7.264       7.053    
        6.833       6.618       6.397       6.122       5.826       5.576       5.438       5.346       5.245       5.139    
        5.058       4.961       4.806       4.637       4.397       4.024       3.561       3.206       2.852       2.358    
        1.955       1.682       1.461       1.282       1.077      0.8555      0.5871      0.3506      0.1579       0.000    
  34    10.00       9.811       9.685       9.575       9.442       9.279       9.109       8.923       8.750       8.618    
        8.490       8.362       8.230       8.071       7.925       7.782       7.646       7.521       7.355       7.136    
        6.928       6.736       6.516       6.227       5.901       5.622       5.452       5.341       5.235       5.118    
        5.017       4.909       4.765       4.556       4.269       3.816       3.377       3.068       2.655       2.226    
        1.980       1.801       1.588       1.358       1.088      0.7758      0.4743      0.2807      0.1163       0.000    
  35    10.00       9.842       9.728       9.616       9.473       9.289       9.093       8.885       8.721       8.608    
        8.522       8.392       8.244       8.072       7.916       7.813       7.714       7.582       7.408       7.200    
        7.002       6.812       6.606       6.271       5.898       5.632       5.449       5.331       5.212       5.079    
        4.983       4.863       4.696       4.420       3.976       3.519       3.235       2.923       2.509       2.254    
        2.085       1.881       1.667       1.443       1.101      0.6596      0.3642      0.2393      0.1214       0.000    
  36    10.00       9.860       9.761       9.653       9.501       9.280       9.040       8.845       8.728       8.641    
        8.522       8.371       8.232       8.080       7.943       7.841       7.743       7.623       7.484       7.289    
        7.083       6.883       6.620       6.250       5.889       5.622       5.451       5.312       5.158       5.038    
        4.922       4.774       4.504       4.096       3.699       3.398       3.141       2.818       2.495       2.329    
        2.157       1.974       1.758       1.468       1.004      0.5551      0.3419      0.2187      0.1124       0.000    
  37    10.00       9.875       9.797       9.680       9.476       9.234       9.022       8.870       8.773       8.667    
        8.511       8.349       8.228       8.095       7.966       7.866       7.774       7.662       7.513       7.337    
        7.169       6.944       6.606       6.253       5.903       5.602       5.391       5.215       5.072       4.954    
        4.820       4.596       4.193       3.836       3.573       3.319       3.059       2.810       2.583       2.399    
        2.233       2.029       1.783       1.403      0.9188      0.5347      0.3200      0.2033      0.1020       0.000    
  38    10.00       9.893       9.799       9.671       9.459       9.209       9.028       8.915       8.813       8.686    
        8.518       8.349       8.230       8.106       7.976       7.875       7.792       7.692       7.541       7.390    
        7.230       6.954       6.562       6.177       5.815       5.516       5.282       5.087       4.953       4.841    
        4.671       4.300       3.960       3.750       3.497       3.251       3.068       2.864       2.657       2.482    
        2.287       2.009       1.697       1.286      0.8061      0.5118      0.3599      0.2242      0.1006       0.000    
  39    10.00       9.891       9.784       9.650       9.444       9.217       9.054       8.953       8.825       8.683    
        8.547       8.376       8.239       8.120       7.993       7.884       7.789       7.687       7.564       7.426    
        7.224       6.917       6.496       6.059       5.688       5.405       5.137       4.934       4.844       4.728    
        4.442       4.084       3.892       3.657       3.426       3.258       3.111       2.925       2.727       2.563    
        2.282       1.889       1.524       1.081      0.7183      0.5542      0.4124      0.2685      0.1381       0.000    
  40    10.00       9.882       9.788       9.650       9.461       9.269       9.109       8.973       8.822       8.691    
        8.588       8.418       8.244       8.122       8.005       7.878       7.771       7.691       7.580       7.399    
        7.157       6.795       6.366       5.952       5.581       5.282       4.969       4.815       4.733       4.575    
        4.320       4.074       3.817       3.581       3.425       3.284       3.145       2.973       2.791       2.577    
        2.198       1.770       1.376       1.018      0.7703      0.6013      0.4601      0.3247      0.1594       0.000    
  41    10.00       9.898       9.822       9.688       9.491       9.292       9.137       9.014       8.865       8.709    
        8.584       8.424       8.261       8.146       8.007       7.855       7.766       7.675       7.521       7.314    
        7.060       6.702       6.269       5.869       5.497       5.091       4.809       4.733       4.637       4.523    
        4.331       4.035       3.782       3.601       3.449       3.325       3.174       3.011       2.824       2.490    
        2.047       1.632       1.291       1.028      0.8132      0.6563      0.5055      0.3570      0.1880       0.000    
  42    10.00       9.923       9.839       9.709       9.538       9.346       9.171       9.043       8.906       8.730    
        8.568       8.415       8.274       8.162       8.013       7.854       7.742       7.614       7.444       7.206    
        6.909       6.517       6.138       5.736       5.247       4.897       4.763       4.700       4.621       4.503    
        4.277       4.020       3.789       3.609       3.489       3.358       3.224       3.049       2.751       2.308    
        1.923       1.615       1.319       1.022      0.8232      0.6899      0.5453      0.3716      0.2062       0.000    
  43    10.00       9.939       9.848       9.713       9.543       9.382       9.226       9.082       8.909       8.723    
        8.574       8.418       8.278       8.173       8.030       7.845       7.693       7.547       7.315       7.012    
        6.726       6.351       6.005       5.540       5.082       4.860       4.756       4.684       4.611       4.486    
        4.273       4.042       3.821       3.648       3.534       3.405       3.230       2.980       2.545       2.154    
        1.915       1.644       1.332       1.025      0.8146      0.6914      0.5800      0.4017      0.1882       0.000    
  44    10.00       9.931       9.853       9.712       9.557       9.440       9.280       9.081       8.884       8.729    
        8.579       8.420       8.296       8.184       8.013       7.810       7.633       7.459       7.185       6.889    
        6.550       6.180       5.812       5.352       5.013       4.850       4.760       4.699       4.619       4.461    
        4.247       4.063       3.871       3.712       3.595       3.415       3.183       2.825       2.386       2.130    
        1.912       1.628       1.318       1.038      0.8240      0.6930      0.5802      0.3934      0.1733       0.000    
  45    10.00       9.917       9.822       9.708       9.594       9.443       9.272       9.080       8.884       8.727    
        8.569       8.425       8.314       8.183       7.993       7.774       7.576       7.379       7.085       6.739    
        6.354       5.966       5.572       5.238       5.006       4.869       4.782       4.716       4.613       4.485    
        4.301       4.092       3.921       3.756       3.587       3.397       3.145       2.765       2.387       2.089    
        1.841       1.575       1.286       1.036      0.8494      0.7409      0.5725      0.3408      0.1553       0.000    
  46    10.00       9.899       9.800       9.709       9.579       9.404       9.237       9.080       8.885       8.717    
        8.576       8.442       8.329       8.169       7.967       7.769       7.560       7.301       6.986       6.613    
        6.163       5.780       5.469       5.218       5.042       4.920       4.811       4.722       4.640       4.498    
        4.301       4.120       3.951       3.761       3.594       3.415       3.131       2.695       2.300       2.035    
        1.803       1.548       1.278       1.058      0.9142      0.7746      0.5189      0.2551      0.1109       0.000    
  47    10.00       9.892       9.792       9.665       9.513       9.369       9.226       9.055       8.877       8.727    
        8.597       8.476       8.315       8.141       7.959       7.767       7.533       7.234       6.941       6.488    
        6.003       5.707       5.440       5.243       5.080       4.960       4.849       4.741       4.646       4.498    
        4.292       4.114       3.942       3.763       3.620       3.404       3.010       2.620       2.291       2.010    
        1.807       1.567       1.326       1.115      0.9360      0.7103      0.4267      0.2230      9.2888E-02   0.000    
  48    10.00       9.880       9.759       9.623       9.486       9.358       9.212       9.056       8.891       8.743    
        8.611       8.468       8.290       8.111       7.932       7.741       7.517       7.235       6.871       6.423    
        6.006       5.703       5.444       5.263       5.130       4.980       4.868       4.778       4.660       4.459    
        4.257       4.083       3.926       3.794       3.605       3.320       2.947       2.597       2.285       2.039    
        1.820       1.591       1.374       1.135      0.8676      0.5769      0.3646      0.2162      9.7697E-02   0.000    
  49    10.00       9.869       9.737       9.604       9.491       9.359       9.205       9.051       8.918       8.763    
        8.605       8.424       8.249       8.099       7.895       7.708       7.522       7.207       6.847       6.492    
        6.052       5.714       5.456       5.298       5.140       4.979       4.892       4.804       4.613       4.372    
        4.200       4.061       3.948       3.776       3.557       3.303       2.931       2.582       2.338       2.076    
        1.818       1.608       1.377       1.096      0.7680      0.5142      0.3646      0.2353      0.1207       0.000    
  50    10.00       9.874       9.742       9.606       9.483       9.353       9.216       9.064       8.924       8.786    
        8.590       8.402       8.242       8.040       7.833       7.691       7.513       7.269       6.913       6.561    
        6.113       5.687       5.463       5.302       5.137       5.006       4.901       4.782       4.556       4.328    
        4.186       4.072       3.940       3.761       3.559       3.317       2.941       2.583       2.346       2.109    
        1.865       1.600       1.340       1.039      0.7159      0.5262      0.3923      0.2659      0.1604       0.000    

 HEAD WILL BE SAVED ON UNIT   51 AT END OF TIME STEP  21, STRESS PERIOD    2

 DRAWDOWN WILL BE SAVED ON UNIT   52 AT END OF TIME STEP  21, STRESS PERIOD    2
1
  VOLUMETRIC BUDGET FOR ENTIRE MODEL AT END OF TIME STEP 21 IN STRESS PERIOD   2
  ------------------------------------------------------------------------------

     CUMULATIVE VOLUMES      L**3       RATES FOR THIS TIME STEP      L**3/T
     ------------------                 ------------------------

           IN:                                      IN:
           ---                                      ---
             STORAGE =       10496.8271               STORAGE =         499.2266
       CONSTANT HEAD =        8197.2432         CONSTANT HEAD =         373.2190
               WELLS =           0.0000                 WELLS =           0.0000

            TOTAL IN =       18694.0703              TOTAL IN =         872.4456

          OUT:                                     OUT:
          ----                                     ----
             STORAGE =       1.1143E-02               STORAGE =           0.0000
       CONSTANT HEAD =        8194.0566         CONSTANT HEAD =         372.4456
               WELLS =       10500.0000                 WELLS =         500.0000

           TOTAL OUT =       18694.0684             TOTAL OUT =         872.4457

            IN - OUT =       1.9531E-03              IN - OUT =      -1.2207E-04

 PERCENT DISCREPANCY =           0.00     PERCENT DISCREPANCY =           0.00






          TIME SUMMARY AT END OF TIME STEP  21 IN STRESS PERIOD    2
                    SECONDS     MINUTES      HOURS       DAYS        YEARS
                    -----------------------------------------------------------
   TIME STEP LENGTH  86400.      1440.0      24.000      1.0000     2.73785E-03
 STRESS PERIOD TIME 1.81440E+06  30240.      504.00      21.000     5.74949E-02
         TOTAL TIME 1.90080E+06  31680.      528.00      22.000     6.02327E-02
1
 
 SOLVING FOR HEAD 

 OUTPUT CONTROL FOR STRESS PERIOD    2   TIME STEP  22
    SAVE HEAD FOR ALL LAYERS
    SAVE DRAWDOWN FOR ALL LAYERS
    SAVE BUDGET
    PRINT HEAD FOR ALL LAYERS
    PRINT BUDGET
 UBDSV1 SAVING "         STORAGE" ON UNIT  53 AT TIME STEP 22, STRESS PERIOD   2
 UBDSV2 SAVING "   CONSTANT HEAD" ON UNIT  53 AT TIME STEP 22, STRESS PERIOD   2
 UBDSV1 SAVING "FLOW RIGHT FACE " ON UNIT  53 AT TIME STEP 22, STRESS PERIOD   2
 UBDSV1 SAVING "FLOW FRONT FACE " ON UNIT  53 AT TIME STEP 22, STRESS PERIOD   2
1
              HEAD IN LAYER   1 AT END OF TIME STEP  22 IN STRESS PERIOD    2
  ---------------------------------------------------------------------------

            1           2           3           4           5           6           7           8           9          10
           11          12          13          14          15          16          17          18          19          20
           21          22          23          24          25          26          27          28          29          30
           31          32          33          34          35          36          37          38          39          40
           41          42          43          44          45          46          47          48          49          50
 ........................................................................................................................
   1    10.00       9.953       9.906       9.851       9.808       9.771       9.722       9.655       9.581       9.512    
        9.362       9.174       9.035       8.880       8.716       8.549       8.394       8.216       7.978       7.742    
        7.580       7.395       7.152       6.905       6.685       6.493       6.218       5.969       5.793       5.607    
        5.446       5.340       5.223       5.089       4.961       4.801       4.630       4.398       4.134       3.845    
        3.475       3.099       2.607       2.072       1.670       1.381       1.165      0.9189      0.5393       0.000    
   2    10.00       9.948       9.898       9.852       9.815       9.779       9.725       9.656       9.588       9.496    
        9.349       9.181       9.025       8.884       8.732       8.560       8.377       8.194       7.972       7.734    
        7.557       7.406       7.147       6.880       6.685       6.467       6.204       5.966       5.764       5.589    
        5.452       5.353       5.254       5.110       4.960       4.801       4.604       4.389       4.133       3.804    
        3.457       3.136       2.620       2.088       1.732       1.474       1.225      0.9490      0.5728       0.000    
   3    10.00       9.940       9.898       9.866       9.831       9.794       9.735       9.653       9.571       9.471    
        9.338       9.189       9.039       8.896       8.716       8.501       8.323       8.165       7.962       7.752    
        7.571       7.357       7.103       6.868       6.656       6.413       6.163       5.928       5.720       5.588    
        5.474       5.377       5.277       5.119       4.961       4.793       4.598       4.357       4.071       3.819    
        3.510       3.073       2.570       2.187       1.883       1.582       1.276      0.9618      0.5428       0.000    
   4    10.00       9.940       9.903       9.874       9.850       9.811       9.743       9.649       9.551       9.452    
        9.326       9.192       9.042       8.864       8.643       8.444       8.317       8.139       7.942       7.779    
        7.534       7.264       7.041       6.833       6.628       6.340       6.064       5.878       5.732       5.616    
        5.511       5.410       5.302       5.119       4.924       4.773       4.568       4.318       4.072       3.849    
        3.498       3.016       2.634       2.311       1.984       1.642       1.273      0.9056      0.4639       0.000    
   5    10.00       9.945       9.911       9.882       9.860       9.820       9.749       9.642       9.533       9.434    
        9.326       9.189       8.998       8.790       8.604       8.447       8.288       8.123       7.939       7.712    
        7.430       7.207       7.022       6.811       6.551       6.254       6.026       5.891       5.770       5.653    
        5.533       5.410       5.287       5.113       4.914       4.731       4.546       4.348       4.122       3.826    
        3.428       3.059       2.731       2.404       2.046       1.648       1.184      0.7629      0.3950       0.000    
   6    10.00       9.954       9.921       9.893       9.863       9.819       9.743       9.627       9.533       9.427    
        9.307       9.138       8.930       8.758       8.586       8.408       8.248       8.101       7.897       7.641    
        7.391       7.178       6.990       6.732       6.451       6.225       6.038       5.909       5.780       5.660    
        5.553       5.417       5.262       5.083       4.891       4.732       4.569       4.387       4.148       3.829    
        3.478       3.119       2.783       2.452       2.063       1.582       1.082      0.7177      0.3694       0.000    
   7    10.00       9.960       9.931       9.902       9.869       9.817       9.716       9.605       9.507       9.377    
        9.255       9.076       8.888       8.712       8.537       8.359       8.203       8.070       7.838       7.565    
        7.342       7.129       6.920       6.670       6.430       6.221       6.056       5.909       5.772       5.673    
        5.564       5.417       5.251       5.066       4.898       4.756       4.606       4.416       4.169       3.875    
        3.525       3.155       2.805       2.439       2.055       1.549       1.036      0.6838      0.3235       0.000    
   8    10.00       9.967       9.941       9.909       9.872       9.787       9.665       9.560       9.439       9.315    
        9.181       9.000       8.841       8.664       8.470       8.299       8.164       8.007       7.792       7.528    
        7.272       7.075       6.902       6.648       6.402       6.216       6.031       5.875       5.777       5.683    
        5.554       5.407       5.265       5.098       4.917       4.767       4.651       4.504       4.257       3.916    
        3.530       3.200       2.871       2.444       2.015       1.450      0.9597      0.6700      0.3100       0.000    
   9    10.00       9.974       9.945       9.909       9.847       9.736       9.607       9.485       9.379       9.252    
        9.095       8.935       8.778       8.610       8.412       8.251       8.127       7.945       7.735       7.472    
        7.248       7.054       6.818       6.564       6.356       6.191       6.003       5.866       5.769       5.665    
        5.546       5.411       5.276       5.129       4.971       4.822       4.698       4.565       4.308       3.937    
        3.580       3.283       2.935       2.521       1.886       1.248      0.9144      0.5667      0.2162       0.000    
  10    10.00       9.974       9.944       9.894       9.799       9.668       9.525       9.431       9.331       9.183    
        9.046       8.888       8.733       8.554       8.374       8.229       8.065       7.878       7.659       7.447    
        7.229       6.943       6.702       6.500       6.321       6.174       6.001       5.856       5.761       5.668    
        5.539       5.395       5.273       5.135       4.994       4.888       4.762       4.606       4.311       3.941    
        3.658       3.394       2.993       2.370       1.635       1.172      0.8302      0.5068      0.2528       0.000    
  11    10.00       9.974       9.935       9.857       9.751       9.605       9.479       9.401       9.282       9.156    
        9.025       8.861       8.677       8.487       8.336       8.184       8.033       7.833       7.623       7.416    
        7.118       6.842       6.645       6.462       6.288       6.126       5.966       5.848       5.764       5.673    
        5.529       5.391       5.284       5.158       5.037       4.918       4.775       4.605       4.326       4.027    
        3.726       3.381       2.945       2.258       1.569       1.103      0.7783      0.5903      0.3260       0.000    
  12    10.00       9.973       9.917       9.818       9.680       9.536       9.436       9.358       9.256       9.142    
        9.000       8.827       8.644       8.475       8.321       8.154       7.982       7.782       7.571       7.299    
        7.007       6.796       6.603       6.417       6.228       6.065       5.948       5.853       5.749       5.638    
        5.511       5.400       5.305       5.201       5.091       4.971       4.812       4.601       4.341       4.067    
        3.744       3.368       2.771       1.999       1.415       1.087      0.8645      0.6265      0.3570       0.000    
  13    10.00       9.964       9.878       9.743       9.599       9.477       9.398       9.329       9.242       9.134    
        8.985       8.807       8.639       8.504       8.326       8.123       7.923       7.707       7.476       7.214    
        6.958       6.732       6.525       6.335       6.155       6.032       5.947       5.826       5.694       5.596    
        5.508       5.416       5.328       5.236       5.132       5.023       4.876       4.631       4.359       4.035    
        3.664       3.191       2.500       1.875       1.449       1.169      0.9091      0.6282      0.3102       0.000    
  14    10.00       9.934       9.812       9.664       9.532       9.436       9.383       9.321       9.238       9.121    
        8.958       8.807       8.669       8.528       8.332       8.094       7.880       7.638       7.381       7.110    
        6.864       6.639       6.434       6.247       6.101       6.016       5.916       5.774       5.658       5.578    
        5.511       5.425       5.347       5.258       5.161       5.071       4.899       4.647       4.356       3.952    
        3.515       2.960       2.427       1.969       1.543       1.214      0.9253      0.6288      0.2800       0.000    
  15    10.00       9.877       9.742       9.611       9.506       9.432       9.375       9.317       9.236       9.128    
        8.985       8.837       8.704       8.510       8.286       8.061       7.821       7.571       7.269       6.978    
        6.750       6.533       6.338       6.188       6.074       5.980       5.868       5.731       5.633       5.571    
        5.500       5.426       5.362       5.279       5.184       5.086       4.905       4.662       4.298       3.861    
        3.407       2.905       2.471       1.997       1.638       1.286      0.9367      0.6227      0.2553       0.000    
  16    10.00       9.858       9.712       9.592       9.502       9.436       9.376       9.323       9.246       9.135    
        9.002       8.863       8.703       8.465       8.225       8.040       7.807       7.474       7.128       6.855    
        6.615       6.429       6.271       6.139       6.015       5.927       5.806       5.690       5.609       5.539    
        5.484       5.429       5.358       5.283       5.198       5.086       4.918       4.625       4.226       3.825    
        3.434       2.946       2.456       2.037       1.698       1.328      0.9335      0.5578      0.2099       0.000    
  17    10.00       9.839       9.694       9.598       9.518       9.451       9.393       9.333       9.250       9.147    
        9.025       8.854       8.640       8.388       8.186       8.012       7.737       7.369       7.013       6.746    
        6.545       6.339       6.162       6.030       5.924       5.819       5.709       5.630       5.559       5.508    
        5.476       5.424       5.349       5.271       5.185       5.066       4.867       4.612       4.283       3.857    
        3.405       2.889       2.435       2.064       1.717       1.337      0.9532      0.5810      0.2455       0.000    
  18    10.00       9.831       9.694       9.612       9.540       9.475       9.418       9.346       9.264       9.155    
        9.011       8.813       8.576       8.363       8.166       7.919       7.602       7.267       6.952       6.688    
        6.444       6.178       6.021       5.910       5.817       5.700       5.624       5.556       5.507       5.485    
        5.457       5.409       5.331       5.244       5.153       5.023       4.828       4.616       4.328       3.930    
        3.340       2.790       2.419       2.066       1.770       1.371      0.9473      0.5693      0.2451       0.000    
  19    10.00       9.839       9.725       9.640       9.564       9.499       9.431       9.365       9.290       9.165    
        8.996       8.786       8.552       8.318       8.063       7.797       7.502       7.178       6.863       6.581    
        6.298       6.058       5.930       5.840       5.715       5.608       5.543       5.484       5.464       5.449    
        5.428       5.384       5.296       5.208       5.127       5.021       4.831       4.594       4.301       3.835    
        3.241       2.774       2.404       2.057       1.725       1.314      0.9092      0.5655      0.2664       0.000    
  20    10.00       9.848       9.751       9.677       9.603       9.526       9.447       9.375       9.300       9.173    
        8.991       8.774       8.504       8.202       7.911       7.694       7.398       7.047       6.766       6.485    
        6.230       6.028       5.872       5.738       5.583       5.506       5.458       5.424       5.418       5.409    
        5.397       5.343       5.258       5.193       5.114       5.000       4.782       4.541       4.206       3.685    
        3.174       2.799       2.371       1.976       1.615       1.212      0.9116      0.5613      0.2488       0.000    
  21    10.00       9.870       9.783       9.708       9.627       9.554       9.467       9.389       9.308       9.166    
        8.972       8.709       8.377       8.026       7.753       7.553       7.274       7.015       6.749       6.444    
        6.199       5.979       5.784       5.537       5.405       5.363       5.303       5.326       5.350       5.344    
        5.331       5.283       5.232       5.180       5.101       4.937       4.715       4.502       4.017       3.479    
        3.100       2.698       2.263       1.897       1.515       1.163      0.8251      0.4944      0.2483       0.000    
  22    10.00       9.898       9.807       9.726       9.647       9.578       9.479       9.379       9.285       9.141    
        8.905       8.577       8.205       7.875       7.639       7.429       7.213       7.025       6.736       6.437    
        6.181       5.869       5.525       5.260       5.159       5.063       5.072       5.163       5.201       5.219    
        5.229       5.210       5.193       5.162       5.080       4.895       4.659       4.274       3.731       3.389    
        2.984       2.553       2.165       1.813       1.489       1.070      0.7159      0.4740      0.2664       0.000    
  23    10.00       9.900       9.812       9.738       9.656       9.565       9.453       9.363       9.281       9.099    
        8.812       8.461       8.122       7.833       7.592       7.413       7.210       6.964       6.686       6.448    
        6.095       5.637       5.266       4.993       4.598       4.599       4.807       4.929       5.015       5.092    
        5.124       5.139       5.149       5.131       5.039       4.839       4.493       4.048       3.607       3.194    
        2.812       2.458       2.085       1.807       1.397      0.9723      0.6963      0.4558      0.2366       0.000    
  24    10.00       9.922       9.822       9.726       9.631       9.526       9.426       9.349       9.258       9.044    
        8.718       8.387       8.106       7.856       7.626       7.393       7.144       6.919       6.697       6.418    
        5.996       5.541       5.101       4.287       3.411       3.926       4.418       4.705       4.861       4.986    
        5.048       5.081       5.103       5.071       4.971       4.721       4.334       3.960       3.473       3.034    
        2.737       2.397       2.044       1.689       1.250      0.9021      0.6698      0.4269      0.1883       0.000    
  25    10.00       9.914       9.799       9.682       9.571       9.476       9.400       9.323       9.210       8.989    
        8.646       8.338       8.123       7.891       7.627       7.385       7.152       6.956       6.753       6.396    
        5.912       5.462       4.756       3.428      0.6344       3.334       4.113       4.564       4.797       4.927    
        5.000       5.043       5.056       5.006       4.895       4.627       4.217       3.786       3.390       3.012    
        2.671       2.303       1.902       1.528       1.112      0.8285      0.6672      0.4151      0.1538       0.000    
  26    10.00       9.893       9.745       9.613       9.524       9.448       9.372       9.278       9.144       8.869    
        8.550       8.336       8.131       7.899       7.653       7.421       7.203       7.012       6.759       6.380    
        5.954       5.460       4.844       4.129       3.469       3.824       4.288       4.604       4.793       4.911    
        4.979       5.018       5.009       4.947       4.808       4.507       4.066       3.718       3.394       2.986    
        2.628       2.211       1.752       1.351       1.011      0.8111      0.6312      0.3701      0.1575       0.000    
  27    10.00       9.869       9.712       9.589       9.514       9.414       9.314       9.194       9.015       8.754    
        8.529       8.338       8.129       7.903       7.660       7.477       7.330       7.076       6.757       6.371    
        6.007       5.652       5.163       4.699       4.331       4.394       4.571       4.724       4.841       4.922    
        4.986       5.008       4.983       4.896       4.723       4.391       4.044       3.736       3.362       2.977    
        2.606       2.102       1.578       1.202      0.9652      0.7981      0.6005      0.3914      0.1887       0.000    
  28    10.00       9.852       9.737       9.598       9.470       9.348       9.238       9.097       8.917       8.715    
        8.529       8.357       8.149       7.896       7.681       7.536       7.371       7.087       6.715       6.372    
        6.119       5.858       5.481       5.126       4.897       4.823       4.818       4.862       4.931       4.987    
        5.015       5.008       4.964       4.850       4.635       4.342       4.069       3.711       3.323       2.937    
        2.487       2.014       1.493       1.120      0.9547      0.7951      0.6192      0.4088      0.1895       0.000    
  29    10.00       9.857       9.713       9.566       9.413       9.295       9.171       9.014       8.862       8.702    
        8.535       8.364       8.159       7.945       7.762       7.591       7.370       7.051       6.711       6.447    
        6.237       6.011       5.706       5.394       5.207       5.103       5.037       5.025       5.046       5.050    
        5.036       5.005       4.939       4.799       4.566       4.323       4.075       3.744       3.313       2.826    
        2.416       1.914       1.396       1.104      0.9578      0.8008      0.6145      0.3994      0.1986       0.000    
  30    10.00       9.836       9.691       9.514       9.359       9.251       9.117       8.979       8.862       8.716    
        8.544       8.357       8.168       7.997       7.834       7.640       7.356       7.058       6.790       6.545    
        6.368       6.149       5.874       5.604       5.379       5.281       5.211       5.170       5.134       5.095    
        5.051       5.002       4.914       4.742       4.539       4.352       4.105       3.679       3.154       2.665    
        2.255       1.798       1.404       1.134      0.9798      0.8027      0.6038      0.4187      0.2053       0.000    
  31    10.00       9.814       9.647       9.478       9.337       9.225       9.098       8.975       8.857       8.714    
        8.541       8.350       8.187       8.043       7.887       7.664       7.383       7.130       6.925       6.713    
        6.527       6.283       6.011       5.785       5.555       5.394       5.316       5.243       5.188       5.124    
        5.065       4.993       4.881       4.721       4.532       4.328       3.946       3.482       3.052       2.579    
        2.193       1.740       1.358       1.163      0.9982      0.8314      0.6243      0.4193      0.1987       0.000    
  32    10.00       9.800       9.619       9.475       9.356       9.243       9.110       8.969       8.825       8.689    
        8.515       8.350       8.203       8.042       7.893       7.702       7.486       7.300       7.092       6.875    
        6.687       6.456       6.186       5.948       5.706       5.482       5.384       5.297       5.217       5.129    
        5.053       4.988       4.845       4.660       4.491       4.216       3.755       3.327       2.955       2.526    
        2.079       1.658       1.379       1.229       1.049      0.8388      0.6197      0.3984      0.1987       0.000    
  33    10.00       9.793       9.639       9.522       9.403       9.271       9.110       8.952       8.796       8.638    
        8.494       8.354       8.207       8.053       7.888       7.739       7.581       7.422       7.250       7.037    
        6.816       6.599       6.377       6.100       5.804       5.554       5.416       5.325       5.226       5.121    
        5.041       4.945       4.792       4.625       4.388       4.018       3.558       3.204       2.851       2.358    
        1.955       1.682       1.461       1.282       1.077      0.8555      0.5871      0.3505      0.1579       0.000    
  34    10.00       9.811       9.684       9.575       9.442       9.279       9.107       8.921       8.748       8.615    
        8.486       8.358       8.225       8.065       7.918       7.774       7.637       7.510       7.343       7.122    
        6.913       6.720       6.499       6.208       5.881       5.603       5.433       5.323       5.218       5.102    
        5.002       4.895       4.753       4.546       4.261       3.811       3.374       3.067       2.654       2.225    
        1.980       1.801       1.587       1.358       1.088      0.7758      0.4743      0.2807      0.1163       0.000    
  35    10.00       9.842       9.728       9.616       9.473       9.288       9.092       8.884       8.719       8.605    
        8.519       8.389       8.239       8.067       7.910       7.806       7.706       7.573       7.398       7.188    
        6.989       6.798       6.591       6.256       5.882       5.616       5.433       5.315       5.196       5.065    
        4.969       4.850       4.685       4.411       3.970       3.516       3.233       2.922       2.508       2.254    
        2.084       1.881       1.666       1.442       1.101      0.6596      0.3642      0.2393      0.1214       0.000    
  36    10.00       9.860       9.761       9.653       9.500       9.280       9.039       8.843       8.726       8.639    
        8.519       8.368       8.228       8.075       7.937       7.835       7.736       7.615       7.476       7.280    
        7.072       6.871       6.608       6.237       5.875       5.608       5.437       5.298       5.145       5.025    
        4.910       4.763       4.495       4.090       3.695       3.396       3.139       2.817       2.494       2.328    
        2.156       1.974       1.757       1.468       1.004      0.5551      0.3419      0.2187      0.1124       0.000    
  37    10.00       9.875       9.797       9.680       9.476       9.234       9.021       8.868       8.771       8.665    
        8.508       8.346       8.224       8.091       7.961       7.861       7.768       7.656       7.506       7.330    
        7.160       6.935       6.597       6.243       5.892       5.591       5.380       5.204       5.061       4.943    
        4.810       4.587       4.188       3.832       3.571       3.317       3.058       2.809       2.583       2.398    
        2.233       2.029       1.783       1.403      0.9187      0.5347      0.3200      0.2033      0.1020       0.000    
  38    10.00       9.893       9.799       9.671       9.458       9.208       9.027       8.914       8.812       8.684    
        8.516       8.346       8.226       8.103       7.972       7.870       7.787       7.687       7.535       7.384    
        7.223       6.948       6.555       6.169       5.807       5.508       5.274       5.080       4.946       4.833    
        4.664       4.295       3.956       3.747       3.495       3.250       3.068       2.863       2.657       2.481    
        2.287       2.009       1.697       1.286      0.8061      0.5118      0.3599      0.2242      0.1006       0.000    
  39    10.00       9.891       9.784       9.649       9.444       9.217       9.053       8.952       8.824       8.681    
        8.545       8.373       8.236       8.116       7.989       7.880       7.785       7.682       7.559       7.421    
        7.219       6.912       6.492       6.055       5.683       5.400       5.132       4.929       4.839       4.723    
        4.438       4.082       3.890       3.655       3.425       3.257       3.110       2.924       2.727       2.563    
        2.282       1.889       1.524       1.081      0.7183      0.5541      0.4124      0.2685      0.1381       0.000    
  40    10.00       9.882       9.788       9.650       9.460       9.269       9.109       8.973       8.821       8.690    
        8.586       8.416       8.242       8.119       8.001       7.874       7.768       7.687       7.577       7.395    
        7.153       6.792       6.363       5.950       5.578       5.279       4.966       4.812       4.730       4.572    
        4.318       4.072       3.815       3.580       3.424       3.283       3.144       2.972       2.791       2.577    
        2.198       1.770       1.376       1.018      0.7703      0.6013      0.4601      0.3247      0.1594       0.000    
  41    10.00       9.898       9.822       9.687       9.491       9.291       9.137       9.013       8.864       8.708    
        8.583       8.422       8.259       8.144       8.004       7.852       7.763       7.672       7.518       7.311    
        7.057       6.700       6.268       5.868       5.495       5.089       4.807       4.730       4.635       4.522    
        4.329       4.034       3.781       3.600       3.449       3.325       3.173       3.011       2.824       2.489    
        2.047       1.632       1.291       1.028      0.8132      0.6563      0.5055      0.3570      0.1880       0.000    
  42    10.00       9.923       9.839       9.709       9.538       9.346       9.170       9.043       8.906       8.729    
        8.567       8.414       8.272       8.161       8.011       7.852       7.740       7.612       7.442       7.204    
        6.908       6.516       6.137       5.736       5.246       4.896       4.761       4.699       4.620       4.501    
        4.276       4.019       3.788       3.608       3.488       3.357       3.224       3.049       2.751       2.308    
        1.923       1.615       1.319       1.022      0.8232      0.6899      0.5453      0.3716      0.2062       0.000    
  43    10.00       9.939       9.848       9.713       9.543       9.382       9.226       9.082       8.908       8.723    
        8.574       8.418       8.277       8.172       8.029       7.844       7.692       7.545       7.313       7.011    
        6.726       6.350       6.004       5.540       5.082       4.859       4.755       4.683       4.610       4.485    
        4.272       4.041       3.820       3.648       3.534       3.405       3.230       2.980       2.544       2.154    
        1.915       1.644       1.332       1.025      0.8146      0.6914      0.5800      0.4017      0.1882       0.000    
  44    10.00       9.931       9.853       9.712       9.557       9.440       9.280       9.081       8.883       8.729    
        8.578       8.419       8.295       8.183       8.012       7.809       7.633       7.458       7.185       6.888    
        6.550       6.180       5.812       5.352       5.013       4.849       4.759       4.699       4.618       4.460    
        4.246       4.062       3.870       3.711       3.594       3.414       3.182       2.824       2.386       2.130    
        1.912       1.628       1.318       1.038      0.8240      0.6930      0.5802      0.3933      0.1733       0.000    
  45    10.00       9.917       9.822       9.708       9.594       9.443       9.272       9.080       8.884       8.727    
        8.569       8.424       8.314       8.182       7.993       7.773       7.576       7.378       7.085       6.739    
        6.353       5.966       5.572       5.238       5.006       4.868       4.781       4.716       4.612       4.484    
        4.300       4.092       3.920       3.756       3.586       3.397       3.144       2.765       2.387       2.089    
        1.841       1.575       1.286       1.036      0.8494      0.7409      0.5725      0.3408      0.1553       0.000    
  46    10.00       9.899       9.800       9.709       9.579       9.404       9.237       9.080       8.885       8.717    
        8.576       8.442       8.329       8.169       7.966       7.769       7.559       7.301       6.986       6.613    
        6.163       5.780       5.469       5.217       5.041       4.919       4.811       4.721       4.639       4.497    
        4.301       4.120       3.951       3.761       3.593       3.415       3.131       2.695       2.300       2.035    
        1.803       1.548       1.278       1.058      0.9142      0.7746      0.5189      0.2551      0.1109       0.000    
  47    10.00       9.892       9.792       9.665       9.513       9.369       9.226       9.055       8.877       8.727    
        8.597       8.476       8.315       8.141       7.958       7.767       7.533       7.234       6.941       6.488    
        6.003       5.707       5.440       5.243       5.079       4.959       4.849       4.741       4.646       4.498    
        4.292       4.114       3.942       3.763       3.620       3.404       3.010       2.620       2.291       2.010    
        1.807       1.567       1.326       1.115      0.9360      0.7103      0.4267      0.2230      9.2887E-02   0.000    
  48    10.00       9.880       9.759       9.623       9.486       9.358       9.212       9.056       8.891       8.743    
        8.611       8.468       8.290       8.111       7.932       7.741       7.517       7.235       6.871       6.423    
        6.006       5.703       5.444       5.263       5.129       4.980       4.868       4.777       4.660       4.458    
        4.257       4.082       3.926       3.794       3.605       3.320       2.947       2.597       2.285       2.039    
        1.820       1.591       1.374       1.135      0.8676      0.5769      0.3646      0.2162      9.7697E-02   0.000    
  49    10.00       9.869       9.737       9.604       9.491       9.359       9.205       9.051       8.918       8.763    
        8.605       8.424       8.249       8.099       7.895       7.708       7.522       7.207       6.847       6.492    
        6.052       5.714       5.456       5.298       5.140       4.979       4.892       4.804       4.613       4.371    
        4.200       4.061       3.948       3.776       3.557       3.303       2.931       2.582       2.338       2.076    
        1.818       1.608       1.377       1.096      0.7680      0.5142      0.3646      0.2353      0.1207       0.000    
  50    10.00       9.874       9.742       9.606       9.483       9.353       9.216       9.064       8.924       8.786    
        8.590       8.402       8.242       8.040       7.833       7.691       7.513       7.269       6.913       6.561    
        6.113       5.687       5.463       5.302       5.137       5.006       4.901       4.782       4.556       4.328    
        4.186       4.072       3.940       3.761       3.559       3.317       2.941       2.583       2.346       2.109    
        1.865       1.600       1.340       1.039      0.7159      0.5262      0.3923      0.2659      0.1604       0.000    

 HEAD WILL BE SAVED ON UNIT   51 AT END OF TIME STEP  22, STRESS PERIOD    2

 DRAWDOWN WILL BE SAVED ON UNIT   52 AT END OF TIME STEP  22, STRESS PERIOD    2
1
  VOLUMETRIC BUDGET FOR ENTIRE MODEL AT END OF TIME STEP 22 IN STRESS PERIOD   2
  ------------------------------------------------------------------------------

     CUMULATIVE VOLUMES      L**3       RATES FOR THIS TIME STEP      L**3/T
     ------------------                 ------------------------

           IN:                                      IN:
           ---                                      ---
             STORAGE =       10995.8730               STORAGE =         499.0462
       CONSTANT HEAD =        8570.6367         CONSTANT HEAD =         373.3940
               WELLS =           0.0000                 WELLS =           0.0000

            TOTAL IN =       19566.5098              TOTAL IN =         872.4402

          OUT:                                     OUT:
          ----                                     ----
             STORAGE =       1.1143E-02               STORAGE =           0.0000
       CONSTANT HEAD =        8566.4971         CONSTANT HEAD =         372.4408
               WELLS =       11000.0000                 WELLS =         500.0000

           TOTAL OUT =       19566.5078             TOTAL OUT =         872.4408

            IN - OUT =       1.9531E-03              IN - OUT =      -6.1035E-04

 PERCENT DISCREPANCY =           0.00     PERCENT DISCREPANCY =           0.00






          TIME SUMMARY AT END OF TIME STEP  22 IN STRESS PERIOD    2
                    SECONDS     MINUTES      HOURS       DAYS        YEARS
                    -----------------------------------------------------------
   TIME STEP LENGTH  86400.      1440.0      24.000      1.0000     2.73785E-03
 STRESS PERIOD TIME 1.90080E+06  31680.      528.00      22.000     6.02327E-02
         TOTAL TIME 1.98720E+06  33120.      552.00      23.000     6.29706E-02
1
 
 SOLVING FOR HEAD 

 OUTPUT CONTROL FOR STRESS PERIOD    2   TIME STEP  23
    SAVE HEAD FOR ALL LAYERS
    SAVE DRAWDOWN FOR ALL LAYERS
    SAVE BUDGET
    PRINT HEAD FOR ALL LAYERS
    PRINT BUDGET
 UBDSV1 SAVING "         STORAGE" ON UNIT  53 AT TIME STEP 23, STRESS PERIOD   2
 UBDSV2 SAVING "   CONSTANT HEAD" ON UNIT  53 AT TIME STEP 23, STRESS PERIOD   2
 UBDSV1 SAVING "FLOW RIGHT FACE " ON UNIT  53 AT TIME STEP 23, STRESS PERIOD   2
 UBDSV1 SAVING "FLOW FRONT FACE " ON UNIT  53 AT TIME STEP 23, STRESS PERIOD   2
1
              HEAD IN LAYER   1 AT END OF TIME STEP  23 IN STRESS PERIOD    2
  ---------------------------------------------------------------------------

            1           2           3           4           5           6           7           8           9          10
           11          12          13          14          15          16          17          18          19          20
           21          22          23          24          25          26          27          28          29          30
           31          32          33          34          35          36          37          38          39          40
           41          42          43          44          45          46          47          48          49          50
 ........................................................................................................................
   1    10.00       9.953       9.906       9.851       9.808       9.771       9.722       9.655       9.581       9.512    
        9.362       9.174       9.035       8.880       8.715       8.549       8.394       8.216       7.978       7.742    
        7.580       7.395       7.151       6.905       6.684       6.492       6.218       5.968       5.792       5.606    
        5.445       5.339       5.222       5.088       4.960       4.801       4.629       4.398       4.134       3.845    
        3.474       3.099       2.607       2.072       1.670       1.381       1.165      0.9189      0.5393       0.000    
   2    10.00       9.948       9.898       9.852       9.815       9.779       9.725       9.656       9.588       9.496    
        9.349       9.181       9.025       8.884       8.731       8.560       8.376       8.193       7.972       7.733    
        7.557       7.406       7.146       6.880       6.684       6.467       6.203       5.965       5.763       5.588    
        5.451       5.352       5.253       5.109       4.959       4.801       4.604       4.388       4.132       3.804    
        3.457       3.136       2.620       2.088       1.732       1.474       1.225      0.9490      0.5728       0.000    
   3    10.00       9.940       9.898       9.866       9.831       9.794       9.735       9.653       9.571       9.471    
        9.338       9.189       9.038       8.896       8.716       8.501       8.323       8.165       7.961       7.752    
        7.571       7.356       7.102       6.867       6.655       6.412       6.162       5.927       5.719       5.587    
        5.472       5.376       5.276       5.118       4.960       4.793       4.598       4.357       4.071       3.819    
        3.510       3.073       2.569       2.187       1.883       1.582       1.276      0.9618      0.5428       0.000    
   4    10.00       9.940       9.903       9.874       9.850       9.811       9.743       9.649       9.551       9.452    
        9.326       9.192       9.042       8.864       8.643       8.444       8.316       8.138       7.942       7.779    
        7.534       7.263       7.040       6.832       6.627       6.339       6.063       5.876       5.731       5.614    
        5.509       5.408       5.300       5.117       4.923       4.772       4.567       4.317       4.072       3.848    
        3.498       3.015       2.634       2.311       1.984       1.642       1.273      0.9056      0.4639       0.000    
   5    10.00       9.945       9.911       9.882       9.860       9.820       9.749       9.642       9.533       9.434    
        9.326       9.189       8.998       8.790       8.603       8.446       8.288       8.123       7.939       7.711    
        7.429       7.206       7.020       6.809       6.549       6.252       6.024       5.888       5.768       5.651    
        5.531       5.408       5.285       5.111       4.913       4.730       4.545       4.347       4.121       3.826    
        3.428       3.059       2.731       2.404       2.046       1.648       1.184      0.7629      0.3950       0.000    
   6    10.00       9.954       9.921       9.893       9.863       9.819       9.743       9.627       9.533       9.427    
        9.307       9.138       8.929       8.757       8.586       8.408       8.248       8.101       7.896       7.640    
        7.390       7.176       6.988       6.730       6.449       6.223       6.035       5.907       5.777       5.657    
        5.550       5.415       5.260       5.081       4.889       4.731       4.567       4.386       4.147       3.828    
        3.477       3.119       2.783       2.452       2.063       1.582       1.082      0.7177      0.3694       0.000    
   7    10.00       9.960       9.931       9.902       9.869       9.817       9.716       9.605       9.507       9.377    
        9.255       9.076       8.887       8.711       8.537       8.359       8.202       8.069       7.836       7.564    
        7.340       7.127       6.917       6.667       6.427       6.218       6.053       5.906       5.769       5.670    
        5.561       5.414       5.249       5.064       4.895       4.754       4.604       4.415       4.167       3.874    
        3.524       3.154       2.804       2.439       2.055       1.549       1.036      0.6838      0.3235       0.000    
   8    10.00       9.967       9.941       9.909       9.872       9.787       9.665       9.560       9.438       9.315    
        9.181       8.999       8.840       8.663       8.469       8.297       8.162       8.005       7.790       7.526    
        7.269       7.072       6.899       6.645       6.398       6.212       6.026       5.871       5.772       5.679    
        5.550       5.403       5.261       5.095       4.913       4.764       4.648       4.501       4.255       3.915    
        3.529       3.199       2.871       2.444       2.015       1.450      0.9596      0.6700      0.3100       0.000    
   9    10.00       9.974       9.945       9.909       9.847       9.736       9.607       9.485       9.379       9.252    
        9.094       8.934       8.777       8.609       8.411       8.250       8.125       7.942       7.732       7.469    
        7.244       7.050       6.813       6.559       6.350       6.185       5.997       5.860       5.763       5.659    
        5.540       5.406       5.271       5.124       4.967       4.819       4.695       4.562       4.306       3.936    
        3.579       3.282       2.934       2.521       1.886       1.248      0.9144      0.5666      0.2162       0.000    
  10    10.00       9.974       9.944       9.894       9.799       9.668       9.525       9.431       9.331       9.183    
        9.045       8.887       8.732       8.553       8.372       8.228       8.063       7.875       7.655       7.443    
        7.225       6.938       6.696       6.493       6.314       6.166       5.993       5.849       5.754       5.661    
        5.533       5.388       5.267       5.129       4.989       4.884       4.758       4.602       4.308       3.939    
        3.657       3.393       2.993       2.369       1.635       1.172      0.8302      0.5068      0.2528       0.000    
  11    10.00       9.974       9.935       9.857       9.751       9.605       9.479       9.400       9.282       9.156    
        9.025       8.860       8.676       8.485       8.334       8.182       8.030       7.830       7.619       7.411    
        7.111       6.835       6.637       6.453       6.279       6.117       5.957       5.839       5.755       5.665    
        5.521       5.383       5.277       5.152       5.032       4.914       4.771       4.601       4.324       4.025    
        3.724       3.381       2.944       2.257       1.569       1.103      0.7783      0.5902      0.3260       0.000    
  12    10.00       9.973       9.917       9.818       9.679       9.535       9.436       9.358       9.255       9.142    
        8.999       8.826       8.643       8.473       8.319       8.152       7.979       7.778       7.566       7.292    
        6.999       6.787       6.593       6.407       6.217       6.054       5.937       5.842       5.738       5.629    
        5.501       5.392       5.297       5.193       5.084       4.965       4.807       4.597       4.338       4.065    
        3.743       3.367       2.770       1.999       1.415       1.086      0.8645      0.6265      0.3570       0.000    
  13    10.00       9.964       9.878       9.742       9.599       9.476       9.397       9.329       9.242       9.133    
        8.984       8.806       8.637       8.502       8.324       8.120       7.919       7.702       7.470       7.205    
        6.949       6.721       6.514       6.323       6.142       6.020       5.935       5.814       5.682       5.584    
        5.497       5.406       5.319       5.227       5.124       5.016       4.870       4.627       4.356       4.033    
        3.662       3.190       2.500       1.875       1.449       1.169      0.9091      0.6282      0.3102       0.000    
  14    10.00       9.934       9.812       9.663       9.532       9.436       9.383       9.321       9.238       9.120    
        8.957       8.806       8.667       8.526       8.329       8.090       7.875       7.631       7.373       7.100    
        6.852       6.627       6.421       6.233       6.086       6.001       5.903       5.760       5.645       5.565    
        5.498       5.413       5.336       5.248       5.152       5.063       4.892       4.642       4.353       3.950    
        3.513       2.959       2.427       1.969       1.543       1.214      0.9253      0.6288      0.2800       0.000    
  15    10.00       9.877       9.742       9.610       9.505       9.432       9.374       9.316       9.235       9.127    
        8.983       8.836       8.701       8.507       8.283       8.057       7.815       7.564       7.259       6.966    
        6.736       6.519       6.322       6.172       6.059       5.965       5.853       5.716       5.619       5.557    
        5.486       5.413       5.350       5.268       5.175       5.078       4.898       4.657       4.294       3.859    
        3.406       2.904       2.471       1.997       1.638       1.286      0.9367      0.6227      0.2553       0.000    
  16    10.00       9.857       9.712       9.592       9.502       9.435       9.376       9.323       9.245       9.134    
        9.001       8.861       8.700       8.462       8.219       8.033       7.799       7.464       7.116       6.840    
        6.599       6.412       6.254       6.122       5.998       5.910       5.789       5.673       5.593       5.524    
        5.469       5.415       5.346       5.272       5.188       5.077       4.911       4.620       4.223       3.823    
        3.432       2.945       2.455       2.037       1.698       1.328      0.9335      0.5578      0.2099       0.000    
  17    10.00       9.839       9.693       9.597       9.517       9.450       9.392       9.332       9.249       9.146    
        9.023       8.852       8.636       8.383       8.180       8.005       7.728       7.356       6.998       6.729    
        6.528       6.320       6.142       6.010       5.904       5.799       5.690       5.611       5.541       5.492    
        5.460       5.409       5.335       5.259       5.174       5.056       4.859       4.606       4.279       3.854    
        3.403       2.889       2.435       2.064       1.717       1.337      0.9532      0.5810      0.2455       0.000    
  18    10.00       9.830       9.694       9.611       9.539       9.475       9.417       9.345       9.263       9.154    
        9.009       8.810       8.572       8.358       8.159       7.910       7.590       7.252       6.935       6.669    
        6.423       6.156       5.999       5.887       5.794       5.678       5.602       5.535       5.487       5.466    
        5.439       5.392       5.317       5.231       5.142       5.013       4.820       4.609       4.323       3.927    
        3.339       2.789       2.419       2.066       1.770       1.371      0.9472      0.5693      0.2451       0.000    
  19    10.00       9.838       9.725       9.640       9.563       9.498       9.431       9.364       9.289       9.163    
        8.994       8.782       8.548       8.311       8.054       7.786       7.488       7.161       6.843       6.560    
        6.275       6.035       5.906       5.816       5.691       5.585       5.520       5.462       5.442       5.428    
        5.409       5.366       5.281       5.194       5.114       5.010       4.822       4.587       4.297       3.832    
        3.240       2.773       2.403       2.056       1.725       1.314      0.9092      0.5655      0.2664       0.000    
  20    10.00       9.848       9.751       9.676       9.602       9.525       9.446       9.374       9.299       9.172    
        8.989       8.770       8.499       8.194       7.901       7.681       7.382       7.029       6.746       6.462    
        6.206       6.004       5.848       5.713       5.557       5.481       5.434       5.400       5.395       5.386    
        5.375       5.324       5.241       5.178       5.101       4.988       4.773       4.534       4.202       3.683    
        3.173       2.799       2.371       1.976       1.615       1.212      0.9116      0.5613      0.2488       0.000    
  21    10.00       9.870       9.783       9.708       9.627       9.554       9.466       9.389       9.307       9.165    
        8.969       8.705       8.370       8.016       7.740       7.538       7.256       6.995       6.728       6.421    
        6.175       5.953       5.759       5.510       5.378       5.337       5.278       5.301       5.326       5.320    
        5.308       5.262       5.213       5.163       5.087       4.925       4.707       4.496       4.014       3.477    
        3.099       2.698       2.263       1.897       1.515       1.163      0.8251      0.4944      0.2483       0.000    
  22    10.00       9.898       9.807       9.725       9.647       9.578       9.478       9.379       9.284       9.139    
        8.902       8.572       8.197       7.863       7.625       7.412       7.195       7.005       6.714       6.413    
        6.155       5.843       5.498       5.232       5.131       5.035       5.044       5.136       5.175       5.193    
        5.204       5.186       5.172       5.143       5.064       4.883       4.651       4.269       3.728       3.387    
        2.983       2.553       2.164       1.813       1.488       1.070      0.7159      0.4740      0.2664       0.000    
  23    10.00       9.899       9.812       9.738       9.656       9.564       9.452       9.362       9.280       9.097    
        8.808       8.455       8.112       7.821       7.577       7.396       7.191       6.943       6.663       6.423    
        6.068       5.609       5.237       4.964       4.568       4.569       4.778       4.899       4.986       5.064    
        5.097       5.113       5.125       5.110       5.022       4.827       4.486       4.044       3.605       3.193    
        2.812       2.458       2.085       1.807       1.397      0.9723      0.6963      0.4558      0.2366       0.000    
  24    10.00       9.921       9.822       9.725       9.630       9.526       9.425       9.348       9.256       9.042    
        8.713       8.380       8.097       7.844       7.612       7.376       7.124       6.897       6.674       6.393    
        5.968       5.512       5.070       4.255       3.379       3.894       4.387       4.674       4.831       4.957    
        5.019       5.054       5.078       5.049       4.954       4.709       4.328       3.957       3.471       3.033    
        2.736       2.396       2.044       1.689       1.250      0.9020      0.6698      0.4269      0.1883       0.000    
  25    10.00       9.914       9.799       9.681       9.570       9.476       9.399       9.322       9.208       8.986    
        8.641       8.331       8.114       7.880       7.612       7.368       7.132       6.935       6.730       6.371    
        5.884       5.432       4.725       3.395      0.5993       3.301       4.081       4.532       4.766       4.898    
        4.972       5.015       5.030       4.984       4.877       4.615       4.210       3.783       3.388       3.011    
        2.671       2.302       1.902       1.528       1.112      0.8284      0.6672      0.4151      0.1538       0.000    
  26    10.00       9.893       9.745       9.612       9.524       9.447       9.371       9.276       9.142       8.866    
        8.545       8.329       8.122       7.888       7.639       7.404       7.184       6.991       6.736       6.354    
        5.926       5.430       4.812       4.097       3.436       3.791       4.255       4.572       4.762       4.881    
        4.950       4.990       4.984       4.925       4.791       4.496       4.059       3.714       3.392       2.985    
        2.628       2.211       1.752       1.351       1.011      0.8111      0.6312      0.3701      0.1575       0.000    
  27    10.00       9.869       9.712       9.588       9.513       9.413       9.313       9.193       9.013       8.751    
        8.524       8.332       8.121       7.892       7.647       7.462       7.313       7.056       6.734       6.345    
        5.979       5.623       5.133       4.668       4.299       4.361       4.539       4.693       4.811       4.892    
        4.958       4.981       4.959       4.876       4.706       4.380       4.037       3.732       3.359       2.975    
        2.605       2.102       1.577       1.202      0.9652      0.7981      0.6005      0.3914      0.1887       0.000    
  28    10.00       9.852       9.737       9.598       9.470       9.347       9.237       9.095       8.915       8.711    
        8.524       8.351       8.141       7.885       7.668       7.521       7.355       7.068       6.692       6.347    
        6.093       5.831       5.452       5.096       4.866       4.791       4.787       4.831       4.901       4.959    
        4.988       4.983       4.941       4.831       4.621       4.332       4.062       3.707       3.320       2.936    
        2.486       2.014       1.493       1.120      0.9547      0.7950      0.6192      0.4088      0.1895       0.000    
  29    10.00       9.857       9.713       9.566       9.412       9.294       9.169       9.012       8.860       8.698    
        8.530       8.358       8.151       7.935       7.750       7.578       7.354       7.032       6.689       6.423    
        6.211       5.985       5.678       5.365       5.177       5.073       5.007       4.997       5.019       5.024    
        5.011       4.982       4.918       4.782       4.553       4.313       4.068       3.739       3.310       2.825    
        2.415       1.914       1.396       1.104      0.9578      0.8008      0.6145      0.3994      0.1986       0.000    
  30    10.00       9.836       9.691       9.514       9.358       9.250       9.116       8.977       8.859       8.713    
        8.539       8.351       8.161       7.988       7.824       7.627       7.340       7.039       6.769       6.523    
        6.344       6.123       5.847       5.576       5.351       5.253       5.183       5.144       5.108       5.071    
        5.028       4.981       4.895       4.726       4.526       4.342       4.097       3.675       3.152       2.664    
        2.254       1.798       1.404       1.134      0.9798      0.8027      0.6037      0.4187      0.2053       0.000    
  31    10.00       9.814       9.646       9.477       9.337       9.224       9.097       8.973       8.855       8.710    
        8.537       8.345       8.180       8.035       7.877       7.653       7.369       7.114       6.906       6.692    
        6.505       6.259       5.986       5.758       5.528       5.368       5.291       5.219       5.164       5.101    
        5.043       4.973       4.863       4.706       4.520       4.319       3.940       3.479       3.050       2.578    
        2.193       1.739       1.358       1.163      0.9982      0.8314      0.6243      0.4193      0.1987       0.000    
  32    10.00       9.799       9.619       9.474       9.355       9.242       9.109       8.967       8.823       8.685    
        8.512       8.345       8.197       8.035       7.885       7.692       7.474       7.286       7.075       6.856    
        6.667       6.435       6.163       5.924       5.681       5.458       5.360       5.274       5.196       5.108    
        5.033       4.970       4.829       4.646       4.480       4.208       3.750       3.324       2.953       2.526    
        2.078       1.658       1.379       1.229       1.049      0.8388      0.6197      0.3984      0.1987       0.000    
  33    10.00       9.793       9.638       9.522       9.403       9.270       9.108       8.950       8.793       8.635    
        8.490       8.349       8.201       8.046       7.880       7.730       7.571       7.410       7.237       7.022    
        6.799       6.581       6.357       6.079       5.782       5.532       5.395       5.305       5.206       5.102    
        5.023       4.928       4.778       4.613       4.378       4.011       3.554       3.202       2.850       2.357    
        1.954       1.682       1.461       1.282       1.077      0.8554      0.5870      0.3505      0.1579       0.000    
  34    10.00       9.811       9.684       9.574       9.441       9.278       9.106       8.919       8.746       8.612    
        8.483       8.354       8.220       8.059       7.911       7.765       7.627       7.500       7.332       7.109    
        6.898       6.704       6.482       6.190       5.863       5.584       5.414       5.305       5.201       5.085    
        4.986       4.881       4.740       4.535       4.253       3.806       3.371       3.065       2.653       2.225    
        1.980       1.801       1.587       1.358       1.088      0.7758      0.4743      0.2807      0.1163       0.000    
  35    10.00       9.842       9.727       9.615       9.472       9.288       9.091       8.882       8.717       8.603    
        8.516       8.385       8.235       8.061       7.903       7.799       7.698       7.564       7.388       7.176    
        6.976       6.784       6.576       6.240       5.866       5.599       5.416       5.299       5.181       5.050    
        4.955       4.837       4.673       4.402       3.964       3.512       3.231       2.921       2.507       2.254    
        2.084       1.881       1.666       1.442       1.101      0.6595      0.3642      0.2393      0.1214       0.000    
  36    10.00       9.860       9.760       9.653       9.500       9.279       9.037       8.841       8.724       8.636    
        8.516       8.364       8.224       8.070       7.931       7.828       7.729       7.608       7.468       7.270    
        7.061       6.859       6.595       6.224       5.861       5.593       5.422       5.283       5.132       5.012    
        4.898       4.752       4.486       4.084       3.692       3.394       3.138       2.816       2.493       2.328    
        2.156       1.974       1.757       1.468       1.003      0.5550      0.3419      0.2187      0.1124       0.000    
  37    10.00       9.875       9.797       9.680       9.476       9.233       9.019       8.867       8.769       8.663    
        8.505       8.343       8.220       8.087       7.956       7.855       7.762       7.649       7.499       7.322    
        7.152       6.925       6.587       6.233       5.881       5.579       5.368       5.192       5.051       4.933    
        4.800       4.579       4.182       3.829       3.568       3.315       3.057       2.808       2.582       2.398    
        2.233       2.028       1.782       1.402      0.9187      0.5346      0.3200      0.2033      0.1020       0.000    
  38    10.00       9.893       9.799       9.670       9.458       9.207       9.026       8.913       8.810       8.682    
        8.514       8.343       8.223       8.099       7.967       7.865       7.782       7.681       7.529       7.377    
        7.216       6.940       6.548       6.162       5.800       5.500       5.266       5.072       4.938       4.826    
        4.656       4.289       3.953       3.745       3.493       3.249       3.066       2.862       2.656       2.481    
        2.287       2.008       1.697       1.286      0.8061      0.5117      0.3599      0.2242      0.1006       0.000    
  39    10.00       9.891       9.784       9.649       9.443       9.216       9.052       8.951       8.823       8.680    
        8.543       8.371       8.233       8.113       7.985       7.876       7.780       7.678       7.555       7.415    
        7.214       6.907       6.487       6.050       5.678       5.395       5.127       4.924       4.834       4.718    
        4.434       4.079       3.887       3.653       3.424       3.256       3.109       2.924       2.726       2.562    
        2.281       1.889       1.524       1.081      0.7183      0.5541      0.4124      0.2685      0.1381       0.000    
  40    10.00       9.882       9.788       9.650       9.460       9.268       9.108       8.972       8.820       8.688    
        8.585       8.414       8.239       8.116       7.998       7.871       7.764       7.683       7.573       7.391    
        7.150       6.789       6.360       5.947       5.575       5.275       4.962       4.808       4.726       4.569    
        4.315       4.070       3.813       3.579       3.423       3.282       3.143       2.972       2.790       2.576    
        2.197       1.770       1.376       1.018      0.7703      0.6012      0.4601      0.3247      0.1594       0.000    
  41    10.00       9.898       9.822       9.687       9.491       9.291       9.136       9.013       8.863       8.706    
        8.581       8.421       8.257       8.141       8.002       7.849       7.760       7.668       7.515       7.309    
        7.055       6.698       6.266       5.866       5.493       5.087       4.805       4.728       4.633       4.520    
        4.328       4.032       3.780       3.599       3.448       3.324       3.173       3.010       2.823       2.489    
        2.047       1.632       1.290       1.028      0.8132      0.6563      0.5055      0.3570      0.1880       0.000    
  42    10.00       9.923       9.839       9.709       9.538       9.345       9.170       9.042       8.905       8.728    
        8.566       8.412       8.271       8.159       8.009       7.849       7.737       7.610       7.440       7.202    
        6.907       6.515       6.137       5.735       5.245       4.895       4.760       4.697       4.618       4.500    
        4.274       4.018       3.787       3.607       3.487       3.356       3.223       3.048       2.750       2.307    
        1.923       1.615       1.319       1.022      0.8232      0.6899      0.5453      0.3716      0.2062       0.000    
  43    10.00       9.939       9.848       9.713       9.543       9.382       9.225       9.081       8.908       8.722    
        8.573       8.417       8.276       8.171       8.028       7.843       7.690       7.544       7.312       7.010    
        6.725       6.350       6.004       5.540       5.081       4.858       4.754       4.682       4.609       4.484    
        4.271       4.040       3.820       3.647       3.533       3.404       3.229       2.979       2.544       2.154    
        1.915       1.643       1.332       1.025      0.8146      0.6914      0.5800      0.4017      0.1882       0.000    
  44    10.00       9.931       9.853       9.712       9.557       9.440       9.280       9.081       8.883       8.729    
        8.578       8.419       8.294       8.182       8.012       7.808       7.632       7.457       7.184       6.888    
        6.550       6.179       5.812       5.351       5.012       4.849       4.759       4.698       4.617       4.459    
        4.246       4.062       3.869       3.711       3.593       3.414       3.182       2.824       2.386       2.130    
        1.912       1.628       1.318       1.038      0.8239      0.6930      0.5802      0.3933      0.1733       0.000    
  45    10.00       9.917       9.822       9.708       9.594       9.443       9.271       9.080       8.884       8.727    
        8.568       8.424       8.314       8.182       7.993       7.773       7.575       7.378       7.084       6.739    
        6.353       5.965       5.572       5.238       5.006       4.868       4.781       4.715       4.611       4.484    
        4.299       4.091       3.920       3.756       3.586       3.397       3.144       2.765       2.387       2.089    
        1.841       1.575       1.286       1.036      0.8494      0.7409      0.5725      0.3408      0.1553       0.000    
  46    10.00       9.899       9.800       9.709       9.579       9.404       9.237       9.079       8.885       8.717    
        8.576       8.441       8.329       8.169       7.966       7.769       7.559       7.301       6.986       6.612    
        6.163       5.780       5.469       5.217       5.041       4.919       4.810       4.721       4.639       4.497    
        4.300       4.120       3.951       3.761       3.593       3.415       3.131       2.695       2.300       2.035    
        1.803       1.548       1.278       1.058      0.9141      0.7746      0.5189      0.2551      0.1109       0.000    
  47    10.00       9.892       9.792       9.665       9.513       9.369       9.226       9.055       8.877       8.726    
        8.597       8.476       8.315       8.141       7.958       7.767       7.533       7.233       6.940       6.488    
        6.003       5.707       5.440       5.243       5.079       4.959       4.848       4.740       4.645       4.498    
        4.292       4.114       3.942       3.763       3.620       3.404       3.010       2.620       2.291       2.010    
        1.807       1.567       1.326       1.115      0.9360      0.7103      0.4267      0.2230      9.2887E-02   0.000    
  48    10.00       9.880       9.759       9.623       9.486       9.358       9.212       9.056       8.891       8.743    
        8.611       8.468       8.290       8.111       7.932       7.741       7.517       7.235       6.871       6.423    
        6.006       5.703       5.444       5.263       5.129       4.980       4.867       4.777       4.660       4.458    
        4.257       4.082       3.925       3.794       3.605       3.320       2.947       2.597       2.285       2.038    
        1.820       1.591       1.374       1.135      0.8676      0.5769      0.3646      0.2162      9.7697E-02   0.000    
  49    10.00       9.869       9.737       9.604       9.491       9.359       9.205       9.051       8.918       8.763    
        8.604       8.424       8.249       8.099       7.894       7.708       7.522       7.207       6.847       6.492    
        6.052       5.714       5.456       5.297       5.139       4.978       4.891       4.804       4.613       4.371    
        4.200       4.061       3.948       3.776       3.557       3.303       2.931       2.582       2.338       2.076    
        1.818       1.608       1.377       1.096      0.7680      0.5142      0.3646      0.2353      0.1207       0.000    
  50    10.00       9.874       9.742       9.606       9.483       9.353       9.216       9.064       8.924       8.786    
        8.590       8.402       8.242       8.040       7.833       7.691       7.513       7.269       6.913       6.561    
        6.112       5.687       5.463       5.301       5.136       5.005       4.900       4.782       4.556       4.328    
        4.186       4.072       3.940       3.761       3.559       3.317       2.940       2.583       2.346       2.109    
        1.865       1.600       1.340       1.039      0.7159      0.5262      0.3923      0.2659      0.1604       0.000    

 HEAD WILL BE SAVED ON UNIT   51 AT END OF TIME STEP  23, STRESS PERIOD    2

 DRAWDOWN WILL BE SAVED ON UNIT   52 AT END OF TIME STEP  23, STRESS PERIOD    2
1
  VOLUMETRIC BUDGET FOR ENTIRE MODEL AT END OF TIME STEP 23 IN STRESS PERIOD   2
  ------------------------------------------------------------------------------

     CUMULATIVE VOLUMES      L**3       RATES FOR THIS TIME STEP      L**3/T
     ------------------                 ------------------------

           IN:                                      IN:
           ---                                      ---
             STORAGE =       11494.7139               STORAGE =         498.8409
       CONSTANT HEAD =        8944.2305         CONSTANT HEAD =         373.5940
               WELLS =           0.0000                 WELLS =           0.0000

            TOTAL IN =       20438.9453              TOTAL IN =         872.4348

          OUT:                                     OUT:
          ----                                     ----
             STORAGE =       1.1143E-02               STORAGE =           0.0000
       CONSTANT HEAD =        8938.9316         CONSTANT HEAD =         372.4346
               WELLS =       11500.0000                 WELLS =         500.0000

           TOTAL OUT =       20438.9434             TOTAL OUT =         872.4346

            IN - OUT =       1.9531E-03              IN - OUT =       1.8311E-04

 PERCENT DISCREPANCY =           0.00     PERCENT DISCREPANCY =           0.00






          TIME SUMMARY AT END OF TIME STEP  23 IN STRESS PERIOD    2
                    SECONDS     MINUTES      HOURS       DAYS        YEARS
                    -----------------------------------------------------------
   TIME STEP LENGTH  86400.      1440.0      24.000      1.0000     2.73785E-03
 STRESS PERIOD TIME 1.98720E+06  33120.      552.00      23.000     6.29706E-02
         TOTAL TIME 2.07360E+06  34560.      576.00      24.000     6.57084E-02
1
 
 SOLVING FOR HEAD 

 OUTPUT CONTROL FOR STRESS PERIOD    2   TIME STEP  24
    SAVE HEAD FOR ALL LAYERS
    SAVE DRAWDOWN FOR ALL LAYERS
    SAVE BUDGET
    PRINT HEAD FOR ALL LAYERS
    PRINT BUDGET
 UBDSV1 SAVING "         STORAGE" ON UNIT  53 AT TIME STEP 24, STRESS PERIOD   2
 UBDSV2 SAVING "   CONSTANT HEAD" ON UNIT  53 AT TIME STEP 24, STRESS PERIOD   2
 UBDSV1 SAVING "FLOW RIGHT FACE " ON UNIT  53 AT TIME STEP 24, STRESS PERIOD   2
 UBDSV1 SAVING "FLOW FRONT FACE " ON UNIT  53 AT TIME STEP 24, STRESS PERIOD   2
1
              HEAD IN LAYER   1 AT END OF TIME STEP  24 IN STRESS PERIOD    2
  ---------------------------------------------------------------------------

            1           2           3           4           5           6           7           8           9          10
           11          12          13          14          15          16          17          18          19          20
           21          22          23          24          25          26          27          28          29          30
           31          32          33          34          35          36          37          38          39          40
           41          42          43          44          45          46          47          48          49          50
 ........................................................................................................................
   1    10.00       9.953       9.906       9.851       9.808       9.771       9.722       9.654       9.581       9.512    
        9.362       9.174       9.035       8.880       8.715       8.548       8.394       8.216       7.978       7.741    
        7.580       7.395       7.151       6.904       6.684       6.491       6.217       5.968       5.791       5.605    
        5.444       5.338       5.221       5.087       4.959       4.800       4.628       4.397       4.133       3.845    
        3.474       3.099       2.607       2.072       1.670       1.381       1.165      0.9188      0.5393       0.000    
   2    10.00       9.948       9.898       9.852       9.815       9.779       9.725       9.656       9.588       9.496    
        9.349       9.181       9.025       8.884       8.731       8.559       8.376       8.193       7.971       7.733    
        7.557       7.405       7.146       6.879       6.683       6.466       6.202       5.964       5.762       5.586    
        5.449       5.351       5.252       5.108       4.958       4.800       4.603       4.388       4.132       3.803    
        3.456       3.136       2.620       2.088       1.732       1.474       1.225      0.9490      0.5728       0.000    
   3    10.00       9.940       9.898       9.866       9.831       9.794       9.735       9.653       9.571       9.471    
        9.338       9.189       9.038       8.896       8.715       8.501       8.322       8.164       7.961       7.751    
        7.570       7.355       7.101       6.866       6.654       6.411       6.161       5.926       5.717       5.585    
        5.471       5.375       5.275       5.117       4.959       4.792       4.597       4.356       4.070       3.819    
        3.510       3.073       2.569       2.187       1.883       1.582       1.276      0.9618      0.5428       0.000    
   4    10.00       9.940       9.903       9.874       9.850       9.811       9.743       9.649       9.551       9.452    
        9.326       9.192       9.042       8.863       8.642       8.444       8.316       8.138       7.941       7.778    
        7.533       7.262       7.039       6.831       6.625       6.337       6.061       5.874       5.729       5.612    
        5.508       5.407       5.299       5.116       4.922       4.771       4.566       4.316       4.071       3.848    
        3.498       3.015       2.634       2.311       1.983       1.642       1.273      0.9056      0.4639       0.000    
   5    10.00       9.945       9.911       9.882       9.860       9.820       9.749       9.642       9.533       9.434    
        9.326       9.189       8.997       8.790       8.603       8.446       8.287       8.122       7.938       7.710    
        7.428       7.205       7.019       6.808       6.547       6.250       6.021       5.886       5.766       5.649    
        5.529       5.406       5.283       5.110       4.911       4.728       4.544       4.345       4.120       3.825    
        3.427       3.058       2.730       2.404       2.046       1.648       1.184      0.7629      0.3949       0.000    
   6    10.00       9.954       9.921       9.893       9.863       9.819       9.743       9.627       9.533       9.427    
        9.307       9.138       8.929       8.757       8.585       8.407       8.247       8.100       7.895       7.638    
        7.389       7.175       6.986       6.728       6.447       6.220       6.032       5.904       5.774       5.654    
        5.548       5.412       5.258       5.079       4.887       4.729       4.566       4.385       4.146       3.827    
        3.477       3.119       2.783       2.452       2.063       1.582       1.082      0.7177      0.3694       0.000    
   7    10.00       9.960       9.931       9.902       9.869       9.816       9.716       9.605       9.507       9.377    
        9.254       9.076       8.887       8.711       8.536       8.358       8.201       8.067       7.835       7.562    
        7.338       7.124       6.915       6.664       6.424       6.215       6.050       5.902       5.765       5.667    
        5.557       5.411       5.246       5.061       4.893       4.752       4.602       4.413       4.166       3.873    
        3.523       3.154       2.804       2.438       2.055       1.549       1.036      0.6837      0.3235       0.000    
   8    10.00       9.967       9.941       9.909       9.872       9.787       9.665       9.560       9.438       9.315    
        9.180       8.999       8.840       8.662       8.468       8.296       8.161       8.003       7.788       7.524    
        7.266       7.069       6.896       6.641       6.394       6.208       6.022       5.865       5.767       5.674    
        5.545       5.399       5.257       5.091       4.910       4.761       4.646       4.499       4.253       3.914    
        3.529       3.198       2.870       2.444       2.015       1.450      0.9596      0.6699      0.3100       0.000    
   9    10.00       9.974       9.945       9.909       9.847       9.736       9.606       9.485       9.378       9.252    
        9.094       8.934       8.777       8.608       8.410       8.248       8.123       7.940       7.729       7.466    
        7.240       7.046       6.808       6.553       6.344       6.179       5.991       5.853       5.757       5.652    
        5.534       5.400       5.266       5.120       4.963       4.815       4.691       4.559       4.304       3.934    
        3.578       3.281       2.934       2.521       1.886       1.248      0.9143      0.5666      0.2161       0.000    
  10    10.00       9.974       9.944       9.894       9.799       9.668       9.525       9.431       9.330       9.182    
        9.044       8.887       8.731       8.551       8.370       8.226       8.060       7.872       7.652       7.439    
        7.220       6.932       6.689       6.486       6.306       6.158       5.985       5.841       5.746       5.654    
        5.526       5.382       5.260       5.123       4.984       4.879       4.754       4.599       4.306       3.937    
        3.655       3.392       2.992       2.369       1.635       1.172      0.8301      0.5068      0.2528       0.000    
  11    10.00       9.974       9.935       9.857       9.751       9.604       9.479       9.400       9.281       9.155    
        9.024       8.859       8.675       8.484       8.332       8.179       8.027       7.826       7.614       7.406    
        7.105       6.827       6.629       6.445       6.271       6.108       5.947       5.829       5.746       5.656    
        5.513       5.375       5.270       5.145       5.026       4.908       4.766       4.598       4.321       4.023    
        3.723       3.380       2.944       2.257       1.569       1.103      0.7782      0.5902      0.3260       0.000    
  12    10.00       9.973       9.917       9.818       9.679       9.535       9.436       9.358       9.255       9.141    
        8.998       8.825       8.641       8.471       8.316       8.149       7.975       7.773       7.561       7.285    
        6.991       6.778       6.584       6.397       6.206       6.043       5.926       5.832       5.728       5.618    
        5.491       5.383       5.288       5.185       5.077       4.959       4.802       4.593       4.335       4.063    
        3.741       3.366       2.770       1.999       1.414       1.086      0.8644      0.6265      0.3570       0.000    
  13    10.00       9.964       9.878       9.742       9.599       9.476       9.397       9.328       9.241       9.132    
        8.983       8.804       8.635       8.499       8.321       8.116       7.914       7.697       7.463       7.197    
        6.939       6.711       6.502       6.311       6.130       6.007       5.923       5.803       5.671       5.572    
        5.486       5.396       5.309       5.219       5.116       5.009       4.864       4.623       4.353       4.031    
        3.661       3.189       2.500       1.875       1.449       1.169      0.9090      0.6281      0.3102       0.000    
  14    10.00       9.934       9.812       9.663       9.531       9.435       9.382       9.320       9.237       9.119    
        8.956       8.804       8.665       8.523       8.326       8.086       7.870       7.625       7.365       7.091    
        6.841       6.614       6.407       6.219       6.072       5.987       5.889       5.747       5.631       5.552    
        5.486       5.402       5.325       5.239       5.144       5.055       4.886       4.637       4.349       3.948    
        3.512       2.958       2.427       1.969       1.543       1.214      0.9253      0.6288      0.2800       0.000    
  15    10.00       9.877       9.742       9.610       9.505       9.431       9.373       9.315       9.234       9.125    
        8.982       8.834       8.699       8.504       8.279       8.051       7.809       7.556       7.249       6.955    
        6.723       6.504       6.307       6.156       6.043       5.950       5.838       5.701       5.604       5.543    
        5.473       5.401       5.338       5.258       5.165       5.069       4.891       4.651       4.291       3.856    
        3.404       2.903       2.470       1.997       1.638       1.286      0.9366      0.6227      0.2553       0.000    
  16    10.00       9.857       9.712       9.591       9.501       9.435       9.375       9.322       9.244       9.132    
        8.999       8.859       8.697       8.458       8.214       8.027       7.791       7.454       7.103       6.826    
        6.583       6.396       6.236       6.104       5.980       5.893       5.772       5.657       5.578       5.509    
        5.454       5.402       5.333       5.260       5.178       5.068       4.903       4.614       4.219       3.820    
        3.431       2.944       2.455       2.036       1.698       1.328      0.9335      0.5578      0.2099       0.000    
  17    10.00       9.839       9.693       9.597       9.517       9.449       9.391       9.331       9.248       9.144    
        9.022       8.849       8.633       8.378       8.173       7.997       7.718       7.344       6.983       6.712    
        6.510       6.301       6.123       5.990       5.885       5.780       5.671       5.592       5.524       5.475    
        5.444       5.395       5.322       5.247       5.163       5.046       4.851       4.600       4.275       3.851    
        3.402       2.888       2.434       2.064       1.716       1.337      0.9532      0.5810      0.2455       0.000    
  18    10.00       9.830       9.694       9.611       9.539       9.474       9.416       9.344       9.262       9.152    
        9.007       8.807       8.567       8.352       8.152       7.900       7.578       7.237       6.918       6.650    
        6.404       6.135       5.977       5.865       5.773       5.656       5.581       5.514       5.467       5.448    
        5.422       5.376       5.302       5.217       5.130       5.003       4.812       4.602       4.318       3.924    
        3.337       2.788       2.418       2.065       1.770       1.371      0.9472      0.5693      0.2451       0.000    
  19    10.00       9.838       9.724       9.639       9.563       9.497       9.430       9.363       9.288       9.162    
        8.992       8.779       8.543       8.305       8.045       7.774       7.475       7.145       6.824       6.539    
        6.253       6.012       5.883       5.793       5.668       5.562       5.498       5.440       5.420       5.407    
        5.390       5.349       5.265       5.180       5.102       4.999       4.813       4.581       4.292       3.829    
        3.239       2.772       2.403       2.056       1.725       1.314      0.9092      0.5655      0.2664       0.000    
  20    10.00       9.848       9.751       9.676       9.602       9.525       9.445       9.373       9.298       9.170    
        8.986       8.766       8.493       8.186       7.890       7.668       7.367       7.010       6.725       6.440    
        6.183       5.980       5.824       5.689       5.533       5.457       5.411       5.377       5.372       5.365    
        5.355       5.305       5.225       5.163       5.088       4.977       4.764       4.527       4.197       3.680    
        3.171       2.798       2.370       1.976       1.615       1.212      0.9116      0.5613      0.2488       0.000    
  21    10.00       9.870       9.783       9.708       9.627       9.553       9.465       9.388       9.306       9.163    
        8.966       8.700       8.363       8.006       7.728       7.524       7.239       6.976       6.707       6.398    
        6.151       5.929       5.734       5.484       5.352       5.312       5.252       5.277       5.302       5.297    
        5.285       5.241       5.194       5.147       5.072       4.914       4.698       4.489       4.010       3.475    
        3.098       2.697       2.263       1.896       1.515       1.162      0.8251      0.4944      0.2483       0.000    
  22    10.00       9.898       9.807       9.725       9.647       9.577       9.478       9.378       9.283       9.137    
        8.899       8.567       8.188       7.851       7.611       7.396       7.177       6.985       6.692       6.389    
        6.131       5.817       5.471       5.204       5.104       5.008       5.017       5.110       5.149       5.168    
        5.179       5.162       5.151       5.125       5.048       4.871       4.643       4.263       3.725       3.386    
        2.982       2.553       2.164       1.813       1.488       1.070      0.7159      0.4740      0.2664       0.000    
  23    10.00       9.899       9.811       9.738       9.655       9.564       9.452       9.361       9.278       9.095    
        8.804       8.448       8.103       7.809       7.562       7.380       7.173       6.922       6.641       6.399    
        6.042       5.581       5.209       4.935       4.539       4.540       4.750       4.871       4.958       5.037    
        5.070       5.088       5.102       5.089       5.006       4.816       4.479       4.040       3.603       3.191    
        2.811       2.457       2.085       1.807       1.397      0.9723      0.6963      0.4558      0.2366       0.000    
  24    10.00       9.921       9.822       9.725       9.630       9.525       9.425       9.347       9.255       9.039    
        8.709       8.373       8.087       7.831       7.597       7.360       7.105       6.876       6.652       6.369    
        5.942       5.484       5.041       4.225       3.348       3.863       4.356       4.645       4.801       4.928    
        4.992       5.028       5.053       5.027       4.936       4.697       4.321       3.953       3.469       3.032    
        2.736       2.396       2.044       1.689       1.250      0.9020      0.6698      0.4269      0.1883       0.000    
  25    10.00       9.914       9.799       9.681       9.570       9.475       9.398       9.321       9.207       8.983    
        8.636       8.324       8.105       7.868       7.598       7.351       7.113       6.914       6.707       6.346    
        5.856       5.403       4.695       3.363      0.5656       3.269       4.049       4.502       4.736       4.869    
        4.944       4.989       5.005       4.963       4.859       4.603       4.203       3.779       3.386       3.010    
        2.670       2.302       1.902       1.528       1.112      0.8284      0.6672      0.4151      0.1538       0.000    
  26    10.00       9.893       9.745       9.612       9.523       9.446       9.370       9.275       9.140       8.863    
        8.540       8.322       8.113       7.877       7.625       7.388       7.166       6.971       6.713       6.329    
        5.899       5.401       4.782       4.065       3.404       3.759       4.224       4.541       4.732       4.852    
        4.922       4.964       4.960       4.904       4.773       4.484       4.052       3.710       3.390       2.983    
        2.627       2.210       1.752       1.351       1.011      0.8111      0.6312      0.3701      0.1575       0.000    
  27    10.00       9.869       9.712       9.588       9.513       9.412       9.312       9.192       9.010       8.747    
        8.519       8.325       8.112       7.881       7.633       7.446       7.296       7.036       6.712       6.320    
        5.953       5.595       5.103       4.637       4.268       4.330       4.508       4.662       4.781       4.864    
        4.931       4.956       4.935       4.855       4.690       4.369       4.030       3.727       3.356       2.974    
        2.604       2.102       1.577       1.202      0.9652      0.7981      0.6005      0.3914      0.1887       0.000    
  28    10.00       9.852       9.736       9.597       9.469       9.346       9.236       9.093       8.912       8.708    
        8.519       8.345       8.133       7.874       7.655       7.507       7.339       7.049       6.670       6.323    
        6.067       5.804       5.423       5.066       4.836       4.761       4.757       4.802       4.872       4.931    
        4.963       4.958       4.919       4.812       4.606       4.322       4.054       3.702       3.318       2.934    
        2.485       2.014       1.493       1.120      0.9547      0.7950      0.6191      0.4088      0.1895       0.000    
  29    10.00       9.857       9.713       9.565       9.411       9.293       9.168       9.010       8.857       8.695    
        8.525       8.352       8.143       7.925       7.739       7.564       7.338       7.013       6.668       6.400    
        6.187       5.959       5.651       5.336       5.149       5.044       4.978       4.968       4.992       4.998    
        4.987       4.959       4.897       4.764       4.539       4.303       4.060       3.734       3.307       2.823    
        2.414       1.914       1.396       1.104      0.9578      0.8007      0.6145      0.3994      0.1986       0.000    
  30    10.00       9.836       9.690       9.513       9.357       9.248       9.114       8.975       8.856       8.709    
        8.535       8.345       8.154       7.979       7.813       7.615       7.325       7.022       6.749       6.501    
        6.320       6.099       5.821       5.549       5.323       5.225       5.157       5.118       5.083       5.047    
        5.005       4.959       4.875       4.710       4.514       4.331       4.090       3.670       3.149       2.663    
        2.254       1.798       1.404       1.134      0.9798      0.8026      0.6037      0.4187      0.2053       0.000    
  31    10.00       9.814       9.646       9.476       9.336       9.222       9.095       8.971       8.852       8.707    
        8.532       8.339       8.173       8.027       7.868       7.642       7.355       7.097       6.888       6.672    
        6.483       6.235       5.961       5.733       5.502       5.342       5.266       5.195       5.140       5.079    
        5.022       4.954       4.845       4.691       4.507       4.309       3.934       3.475       3.048       2.578    
        2.192       1.739       1.358       1.163      0.9981      0.8314      0.6243      0.4193      0.1987       0.000    
  32    10.00       9.799       9.618       9.473       9.354       9.241       9.107       8.965       8.820       8.682    
        8.507       8.340       8.190       8.027       7.876       7.682       7.462       7.272       7.059       6.838    
        6.648       6.414       6.141       5.900       5.658       5.435       5.338       5.252       5.174       5.088    
        5.014       4.952       4.813       4.633       4.468       4.199       3.745       3.322       2.951       2.525    
        2.078       1.658       1.379       1.229       1.049      0.8387      0.6197      0.3984      0.1987       0.000    
  33    10.00       9.793       9.638       9.521       9.402       9.269       9.107       8.948       8.791       8.632    
        8.486       8.344       8.196       8.039       7.872       7.720       7.560       7.398       7.223       7.006    
        6.782       6.563       6.338       6.058       5.761       5.511       5.374       5.285       5.187       5.084    
        5.006       4.912       4.764       4.601       4.368       4.004       3.550       3.200       2.848       2.356    
        1.954       1.682       1.460       1.282       1.077      0.8554      0.5870      0.3505      0.1579       0.000    
  34    10.00       9.811       9.684       9.574       9.440       9.277       9.105       8.918       8.743       8.609    
        8.479       8.349       8.215       8.053       7.904       7.757       7.618       7.489       7.320       7.096    
        6.884       6.688       6.465       6.171       5.844       5.565       5.395       5.287       5.183       5.069    
        4.971       4.867       4.727       4.524       4.244       3.801       3.368       3.063       2.652       2.224    
        1.979       1.800       1.587       1.357       1.088      0.7757      0.4743      0.2807      0.1163       0.000    
  35    10.00       9.842       9.727       9.615       9.472       9.287       9.089       8.880       8.714       8.600    
        8.513       8.381       8.230       8.056       7.896       7.791       7.690       7.555       7.377       7.165    
        6.964       6.770       6.561       6.224       5.850       5.583       5.400       5.283       5.165       5.036    
        4.941       4.824       4.661       4.393       3.958       3.509       3.229       2.919       2.507       2.253    
        2.084       1.880       1.666       1.442       1.101      0.6595      0.3641      0.2393      0.1214       0.000    
  36    10.00       9.860       9.760       9.652       9.499       9.278       9.036       8.839       8.721       8.634    
        8.513       8.360       8.220       8.065       7.925       7.821       7.722       7.600       7.459       7.260    
        7.050       6.847       6.583       6.211       5.847       5.579       5.408       5.269       5.118       4.999    
        4.886       4.740       4.477       4.077       3.688       3.391       3.136       2.815       2.493       2.327    
        2.156       1.973       1.757       1.468       1.003      0.5550      0.3419      0.2187      0.1124       0.000    
  37    10.00       9.874       9.797       9.680       9.475       9.232       9.018       8.865       8.767       8.661    
        8.503       8.339       8.216       8.082       7.951       7.850       7.756       7.642       7.491       7.314    
        7.143       6.915       6.577       6.222       5.870       5.568       5.356       5.181       5.040       4.922    
        4.789       4.570       4.176       3.824       3.565       3.313       3.055       2.807       2.581       2.397    
        2.232       2.028       1.782       1.402      0.9186      0.5346      0.3200      0.2033      0.1020       0.000    
  38    10.00       9.893       9.799       9.670       9.457       9.206       9.025       8.911       8.809       8.680    
        8.512       8.340       8.220       8.095       7.963       7.860       7.777       7.676       7.523       7.370    
        7.209       6.933       6.541       6.154       5.792       5.492       5.258       5.064       4.931       4.818    
        4.649       4.284       3.949       3.742       3.491       3.247       3.065       2.861       2.656       2.480    
        2.286       2.008       1.697       1.286      0.8060      0.5117      0.3599      0.2242      0.1006       0.000    
  39    10.00       9.891       9.784       9.649       9.443       9.215       9.051       8.950       8.821       8.678    
        8.541       8.368       8.230       8.110       7.981       7.871       7.776       7.673       7.550       7.410    
        7.208       6.902       6.482       6.045       5.673       5.389       5.121       4.919       4.828       4.712    
        4.430       4.075       3.884       3.651       3.422       3.255       3.108       2.923       2.725       2.562    
        2.281       1.888       1.524       1.081      0.7183      0.5541      0.4124      0.2685      0.1381       0.000    
  40    10.00       9.882       9.788       9.649       9.460       9.268       9.107       8.971       8.818       8.687    
        8.583       8.412       8.236       8.113       7.995       7.867       7.760       7.679       7.568       7.387    
        7.146       6.786       6.357       5.944       5.571       5.272       4.959       4.805       4.723       4.565    
        4.313       4.068       3.812       3.577       3.422       3.281       3.142       2.971       2.790       2.576    
        2.197       1.770       1.376       1.018      0.7703      0.6012      0.4601      0.3247      0.1594       0.000    
  41    10.00       9.898       9.822       9.687       9.490       9.290       9.135       9.012       8.862       8.705    
        8.580       8.419       8.255       8.139       7.999       7.846       7.756       7.665       7.512       7.306    
        7.053       6.696       6.265       5.864       5.491       5.085       4.803       4.726       4.631       4.517    
        4.326       4.031       3.778       3.598       3.447       3.323       3.172       3.009       2.823       2.489    
        2.046       1.632       1.290       1.028      0.8131      0.6563      0.5055      0.3570      0.1880       0.000    
  42    10.00       9.923       9.839       9.709       9.538       9.345       9.169       9.042       8.904       8.727    
        8.565       8.411       8.269       8.157       8.007       7.847       7.735       7.607       7.438       7.200    
        6.905       6.514       6.136       5.734       5.244       4.893       4.758       4.695       4.616       4.498    
        4.273       4.017       3.786       3.606       3.486       3.355       3.222       3.047       2.750       2.307    
        1.923       1.615       1.319       1.022      0.8232      0.6899      0.5453      0.3716      0.2062       0.000    
  43    10.00       9.939       9.848       9.713       9.543       9.382       9.225       9.081       8.907       8.722    
        8.572       8.416       8.275       8.170       8.026       7.841       7.689       7.542       7.311       7.009    
        6.724       6.349       6.003       5.539       5.080       4.857       4.753       4.681       4.607       4.482    
        4.270       4.039       3.819       3.646       3.532       3.404       3.229       2.979       2.544       2.154    
        1.915       1.643       1.332       1.025      0.8145      0.6913      0.5799      0.4017      0.1882       0.000    
  44    10.00       9.931       9.853       9.712       9.557       9.440       9.280       9.080       8.883       8.728    
        8.577       8.418       8.294       8.182       8.011       7.807       7.631       7.456       7.183       6.887    
        6.549       6.179       5.811       5.351       5.012       4.848       4.758       4.697       4.616       4.459    
        4.245       4.061       3.869       3.710       3.593       3.413       3.181       2.824       2.386       2.130    
        1.912       1.628       1.318       1.038      0.8239      0.6930      0.5802      0.3933      0.1733       0.000    
  45    10.00       9.917       9.822       9.708       9.594       9.443       9.271       9.080       8.884       8.727    
        8.568       8.424       8.313       8.182       7.992       7.772       7.575       7.377       7.084       6.738    
        6.353       5.965       5.572       5.237       5.005       4.867       4.780       4.714       4.611       4.483    
        4.299       4.091       3.919       3.755       3.586       3.396       3.144       2.765       2.387       2.089    
        1.841       1.575       1.286       1.036      0.8494      0.7409      0.5725      0.3408      0.1553       0.000    
  46    10.00       9.899       9.800       9.709       9.579       9.404       9.237       9.079       8.885       8.717    
        8.575       8.441       8.328       8.168       7.966       7.769       7.559       7.301       6.985       6.612    
        6.163       5.780       5.469       5.217       5.041       4.918       4.810       4.720       4.638       4.496    
        4.300       4.119       3.950       3.760       3.593       3.415       3.131       2.695       2.300       2.035    
        1.803       1.548       1.277       1.058      0.9141      0.7746      0.5189      0.2551      0.1109       0.000    
  47    10.00       9.892       9.792       9.665       9.513       9.369       9.226       9.055       8.877       8.726    
        8.597       8.476       8.314       8.140       7.958       7.766       7.533       7.233       6.940       6.488    
        6.003       5.706       5.440       5.243       5.079       4.959       4.848       4.740       4.645       4.497    
        4.291       4.113       3.941       3.762       3.619       3.404       3.010       2.620       2.291       2.010    
        1.807       1.567       1.326       1.115      0.9359      0.7103      0.4267      0.2230      9.2887E-02   0.000    
  48    10.00       9.880       9.759       9.623       9.486       9.358       9.212       9.056       8.891       8.743    
        8.611       8.467       8.290       8.110       7.932       7.741       7.517       7.235       6.871       6.423    
        6.006       5.703       5.444       5.263       5.129       4.980       4.867       4.777       4.659       4.458    
        4.256       4.082       3.925       3.794       3.605       3.320       2.947       2.597       2.285       2.038    
        1.820       1.591       1.374       1.135      0.8676      0.5769      0.3646      0.2162      9.7696E-02   0.000    
  49    10.00       9.869       9.737       9.604       9.491       9.359       9.204       9.051       8.918       8.763    
        8.604       8.424       8.249       8.098       7.894       7.708       7.522       7.206       6.847       6.492    
        6.052       5.714       5.456       5.297       5.139       4.978       4.891       4.803       4.613       4.371    
        4.200       4.061       3.948       3.776       3.557       3.303       2.931       2.582       2.338       2.076    
        1.818       1.608       1.377       1.096      0.7680      0.5142      0.3646      0.2353      0.1207       0.000    
  50    10.00       9.874       9.742       9.606       9.483       9.353       9.216       9.064       8.924       8.786    
        8.590       8.402       8.242       8.040       7.833       7.690       7.513       7.269       6.913       6.561    
        6.112       5.687       5.463       5.301       5.136       5.005       4.900       4.781       4.556       4.327    
        4.186       4.072       3.939       3.761       3.559       3.317       2.940       2.583       2.346       2.109    
        1.865       1.600       1.340       1.039      0.7159      0.5262      0.3923      0.2659      0.1604       0.000    

 HEAD WILL BE SAVED ON UNIT   51 AT END OF TIME STEP  24, STRESS PERIOD    2

 DRAWDOWN WILL BE SAVED ON UNIT   52 AT END OF TIME STEP  24, STRESS PERIOD    2
1
  VOLUMETRIC BUDGET FOR ENTIRE MODEL AT END OF TIME STEP 24 IN STRESS PERIOD   2
  ------------------------------------------------------------------------------

     CUMULATIVE VOLUMES      L**3       RATES FOR THIS TIME STEP      L**3/T
     ------------------                 ------------------------

           IN:                                      IN:
           ---                                      ---
             STORAGE =       11993.3203               STORAGE =         498.6068
       CONSTANT HEAD =        9318.0508         CONSTANT HEAD =         373.8199
               WELLS =           0.0000                 WELLS =           0.0000

            TOTAL IN =       21311.3711              TOTAL IN =         872.4267

          OUT:                                     OUT:
          ----                                     ----
             STORAGE =       1.1143E-02               STORAGE =           0.0000
       CONSTANT HEAD =        9311.3584         CONSTANT HEAD =         372.4269
               WELLS =       12000.0000                 WELLS =         500.0000

           TOTAL OUT =       21311.3691             TOTAL OUT =         872.4269

            IN - OUT =       1.9531E-03              IN - OUT =      -2.4414E-04

 PERCENT DISCREPANCY =           0.00     PERCENT DISCREPANCY =           0.00






          TIME SUMMARY AT END OF TIME STEP  24 IN STRESS PERIOD    2
                    SECONDS     MINUTES      HOURS       DAYS        YEARS
                    -----------------------------------------------------------
   TIME STEP LENGTH  86400.      1440.0      24.000      1.0000     2.73785E-03
 STRESS PERIOD TIME 2.07360E+06  34560.      576.00      24.000     6.57084E-02
         TOTAL TIME 2.16000E+06  36000.      600.00      25.000     6.84463E-02
1
 
 SOLVING FOR HEAD 

 OUTPUT CONTROL FOR STRESS PERIOD    2   TIME STEP  25
    SAVE HEAD FOR ALL LAYERS
    SAVE DRAWDOWN FOR ALL LAYERS
    SAVE BUDGET
    PRINT HEAD FOR ALL LAYERS
    PRINT BUDGET
 UBDSV1 SAVING "         STORAGE" ON UNIT  53 AT TIME STEP 25, STRESS PERIOD   2
 UBDSV2 SAVING "   CONSTANT HEAD" ON UNIT  53 AT TIME STEP 25, STRESS PERIOD   2
 UBDSV1 SAVING "FLOW RIGHT FACE " ON UNIT  53 AT TIME STEP 25, STRESS PERIOD   2
 UBDSV1 SAVING "FLOW FRONT FACE " ON UNIT  53 AT TIME STEP 25, STRESS PERIOD   2
1
              HEAD IN LAYER   1 AT END OF TIME STEP  25 IN STRESS PERIOD    2
  ---------------------------------------------------------------------------

            1           2           3           4           5           6           7           8           9          10
           11          12          13          14          15          16          17          18          19          20
           21          22          23          24          25          26          27          28          29          30
           31          32          33          34          35          36          37          38          39          40
           41          42          43          44          45          46          47          48          49          50
 ........................................................................................................................
   1    10.00       9.953       9.906       9.851       9.808       9.771       9.722       9.654       9.580       9.512    
        9.362       9.174       9.035       8.880       8.715       8.548       8.394       8.216       7.977       7.741    
        7.579       7.394       7.150       6.904       6.683       6.490       6.216       5.966       5.790       5.604    
        5.443       5.337       5.220       5.086       4.958       4.799       4.628       4.397       4.133       3.844    
        3.474       3.098       2.607       2.072       1.670       1.381       1.165      0.9188      0.5393       0.000    
   2    10.00       9.948       9.898       9.852       9.815       9.779       9.725       9.656       9.588       9.496    
        9.349       9.181       9.025       8.883       8.731       8.559       8.376       8.193       7.971       7.732    
        7.556       7.405       7.145       6.878       6.682       6.465       6.201       5.962       5.761       5.585    
        5.448       5.350       5.250       5.107       4.957       4.799       4.602       4.387       4.131       3.803    
        3.456       3.136       2.620       2.088       1.732       1.474       1.225      0.9490      0.5727       0.000    
   3    10.00       9.940       9.898       9.866       9.831       9.794       9.735       9.653       9.571       9.471    
        9.338       9.189       9.038       8.896       8.715       8.501       8.322       8.164       7.960       7.751    
        7.570       7.355       7.100       6.865       6.653       6.410       6.159       5.924       5.716       5.584    
        5.469       5.373       5.273       5.115       4.958       4.791       4.596       4.355       4.070       3.818    
        3.509       3.073       2.569       2.187       1.883       1.582       1.276      0.9618      0.5427       0.000    
   4    10.00       9.940       9.903       9.874       9.850       9.811       9.743       9.649       9.551       9.452    
        9.325       9.191       9.041       8.863       8.642       8.443       8.315       8.137       7.941       7.777    
        7.532       7.261       7.038       6.830       6.624       6.336       6.059       5.872       5.727       5.610    
        5.506       5.405       5.297       5.115       4.920       4.770       4.565       4.315       4.070       3.847    
        3.497       3.015       2.634       2.311       1.983       1.642       1.272      0.9056      0.4639       0.000    
   5    10.00       9.945       9.911       9.882       9.860       9.820       9.749       9.641       9.533       9.434    
        9.326       9.189       8.997       8.790       8.603       8.445       8.287       8.122       7.937       7.709    
        7.427       7.203       7.018       6.806       6.546       6.248       6.019       5.884       5.763       5.647    
        5.527       5.404       5.281       5.108       4.910       4.727       4.542       4.344       4.119       3.824    
        3.427       3.058       2.730       2.403       2.046       1.648       1.184      0.7629      0.3949       0.000    
   6    10.00       9.954       9.921       9.893       9.863       9.819       9.743       9.627       9.533       9.427    
        9.307       9.138       8.929       8.756       8.585       8.407       8.246       8.099       7.894       7.637    
        7.387       7.173       6.985       6.726       6.444       6.217       6.029       5.901       5.771       5.651    
        5.545       5.410       5.255       5.076       4.885       4.727       4.564       4.383       4.145       3.826    
        3.476       3.118       2.782       2.452       2.063       1.582       1.082      0.7176      0.3694       0.000    
   7    10.00       9.960       9.931       9.902       9.869       9.816       9.716       9.604       9.507       9.377    
        9.254       9.075       8.886       8.710       8.535       8.357       8.200       8.066       7.834       7.560    
        7.336       7.122       6.912       6.661       6.420       6.212       6.046       5.899       5.761       5.663    
        5.554       5.407       5.242       5.058       4.890       4.749       4.599       4.411       4.165       3.872    
        3.522       3.153       2.804       2.438       2.054       1.549       1.036      0.6837      0.3235       0.000    
   8    10.00       9.967       9.941       9.909       9.872       9.787       9.665       9.560       9.438       9.315    
        9.180       8.998       8.839       8.661       8.467       8.295       8.160       8.002       7.786       7.521    
        7.263       7.066       6.892       6.637       6.389       6.203       6.017       5.860       5.762       5.669    
        5.541       5.394       5.253       5.087       4.907       4.758       4.643       4.496       4.251       3.912    
        3.528       3.198       2.870       2.443       2.015       1.450      0.9596      0.6699      0.3100       0.000    
   9    10.00       9.974       9.945       9.909       9.847       9.736       9.606       9.484       9.378       9.251    
        9.093       8.933       8.776       8.607       8.408       8.247       8.121       7.938       7.727       7.462    
        7.236       7.042       6.803       6.547       6.338       6.173       5.984       5.847       5.750       5.646    
        5.528       5.394       5.260       5.114       4.958       4.811       4.688       4.556       4.301       3.933    
        3.577       3.280       2.933       2.520       1.886       1.248      0.9143      0.5666      0.2161       0.000    
  10    10.00       9.974       9.944       9.894       9.799       9.667       9.525       9.430       9.330       9.182    
        9.044       8.886       8.730       8.550       8.368       8.223       8.058       7.869       7.648       7.435    
        7.215       6.926       6.682       6.479       6.299       6.151       5.977       5.833       5.738       5.646    
        5.519       5.375       5.254       5.118       4.979       4.875       4.750       4.595       4.303       3.936    
        3.654       3.391       2.992       2.369       1.634       1.172      0.8301      0.5068      0.2528       0.000    
  11    10.00       9.974       9.935       9.857       9.750       9.604       9.479       9.400       9.281       9.155    
        9.023       8.858       8.673       8.482       8.330       8.176       8.024       7.822       7.610       7.400    
        7.098       6.819       6.621       6.436       6.262       6.099       5.938       5.820       5.738       5.648    
        5.504       5.367       5.263       5.138       5.020       4.903       4.762       4.594       4.318       4.020    
        3.721       3.378       2.943       2.257       1.569       1.102      0.7782      0.5902      0.3259       0.000    
  12    10.00       9.973       9.917       9.818       9.679       9.535       9.435       9.357       9.254       9.140    
        8.997       8.823       8.639       8.469       8.314       8.146       7.971       7.769       7.555       7.278    
        6.982       6.769       6.574       6.386       6.196       6.032       5.915       5.822       5.718       5.608    
        5.482       5.373       5.280       5.178       5.070       4.952       4.797       4.589       4.331       4.061    
        3.740       3.365       2.769       1.999       1.414       1.086      0.8644      0.6264      0.3570       0.000    
  13    10.00       9.964       9.878       9.742       9.599       9.476       9.396       9.327       9.240       9.131    
        8.982       8.803       8.633       8.497       8.318       8.113       7.910       7.691       7.456       7.189    
        6.929       6.700       6.491       6.299       6.117       5.994       5.911       5.791       5.659       5.561    
        5.475       5.385       5.299       5.210       5.108       5.002       4.858       4.618       4.349       4.028    
        3.659       3.188       2.499       1.875       1.449       1.169      0.9090      0.6281      0.3102       0.000    
  14    10.00       9.934       9.812       9.663       9.531       9.435       9.381       9.319       9.236       9.118    
        8.954       8.802       8.663       8.521       8.323       8.082       7.865       7.618       7.357       7.081    
        6.830       6.602       6.394       6.204       6.058       5.973       5.875       5.733       5.618       5.539    
        5.474       5.390       5.315       5.229       5.135       5.047       4.879       4.632       4.346       3.945    
        3.510       2.957       2.426       1.969       1.543       1.214      0.9252      0.6287      0.2799       0.000    
  15    10.00       9.877       9.742       9.610       9.505       9.431       9.373       9.315       9.233       9.124    
        8.980       8.832       8.697       8.501       8.274       8.046       7.803       7.548       7.239       6.943    
        6.710       6.490       6.292       6.141       6.028       5.934       5.823       5.686       5.590       5.529    
        5.459       5.388       5.327       5.247       5.156       5.061       4.884       4.646       4.287       3.854    
        3.403       2.902       2.470       1.996       1.637       1.286      0.9366      0.6226      0.2553       0.000    
  16    10.00       9.857       9.711       9.591       9.501       9.434       9.374       9.321       9.243       9.131    
        8.997       8.857       8.695       8.454       8.209       8.020       7.784       7.444       7.091       6.812    
        6.567       6.379       6.219       6.087       5.963       5.876       5.755       5.641       5.562       5.494    
        5.440       5.388       5.321       5.249       5.167       5.058       4.895       4.608       4.215       3.818    
        3.429       2.943       2.454       2.036       1.697       1.328      0.9335      0.5577      0.2099       0.000    
  17    10.00       9.839       9.693       9.597       9.516       9.449       9.390       9.330       9.246       9.143    
        9.020       8.847       8.629       8.372       8.167       7.990       7.708       7.331       6.968       6.695    
        6.493       6.283       6.104       5.970       5.865       5.761       5.652       5.574       5.506       5.459    
        5.429       5.380       5.309       5.234       5.152       5.036       4.843       4.593       4.270       3.848    
        3.400       2.887       2.434       2.063       1.716       1.337      0.9531      0.5810      0.2455       0.000    
  18    10.00       9.830       9.693       9.610       9.538       9.473       9.415       9.343       9.261       9.150    
        9.005       8.803       8.563       8.346       8.145       7.891       7.566       7.223       6.901       6.632    
        6.384       6.114       5.956       5.844       5.751       5.635       5.560       5.494       5.448       5.430    
        5.405       5.361       5.288       5.204       5.118       4.992       4.803       4.595       4.313       3.921    
        3.335       2.788       2.418       2.065       1.769       1.371      0.9472      0.5692      0.2451       0.000    
  19    10.00       9.838       9.724       9.639       9.562       9.497       9.429       9.362       9.287       9.160    
        8.989       8.775       8.537       8.298       8.036       7.763       7.461       7.128       6.806       6.519    
        6.232       5.989       5.861       5.770       5.645       5.540       5.476       5.418       5.400       5.387    
        5.371       5.332       5.249       5.166       5.089       4.988       4.804       4.573       4.286       3.826    
        3.237       2.771       2.402       2.056       1.725       1.314      0.9092      0.5655      0.2664       0.000    
  20    10.00       9.847       9.750       9.676       9.601       9.524       9.444       9.372       9.296       9.168    
        8.984       8.762       8.487       8.178       7.879       7.656       7.351       6.992       6.705       6.418    
        6.160       5.957       5.800       5.666       5.509       5.433       5.388       5.354       5.350       5.343    
        5.334       5.286       5.208       5.148       5.074       4.965       4.755       4.520       4.192       3.677    
        3.170       2.797       2.370       1.975       1.615       1.212      0.9116      0.5613      0.2488       0.000    
  21    10.00       9.870       9.783       9.707       9.626       9.553       9.464       9.387       9.304       9.161    
        8.963       8.696       8.356       7.996       7.715       7.509       7.222       6.957       6.686       6.375    
        6.127       5.905       5.709       5.459       5.327       5.287       5.228       5.253       5.279       5.274    
        5.263       5.220       5.176       5.130       5.058       4.903       4.689       4.482       4.006       3.473    
        3.097       2.697       2.263       1.896       1.515       1.162      0.8251      0.4944      0.2483       0.000    
  22    10.00       9.898       9.806       9.725       9.646       9.577       9.477       9.376       9.281       9.135    
        8.895       8.561       8.179       7.840       7.597       7.380       7.159       6.966       6.670       6.366    
        6.107       5.791       5.445       5.178       5.078       4.981       4.991       5.085       5.124       5.143    
        5.155       5.139       5.130       5.107       5.033       4.860       4.634       4.258       3.722       3.384    
        2.981       2.552       2.164       1.813       1.488       1.070      0.7159      0.4740      0.2664       0.000    
  23    10.00       9.899       9.811       9.737       9.655       9.563       9.451       9.360       9.277       9.093    
        8.800       8.442       8.093       7.796       7.548       7.364       7.155       6.902       6.619       6.376    
        6.017       5.555       5.181       4.908       4.511       4.512       4.722       4.844       4.931       5.010    
        5.044       5.063       5.079       5.069       4.989       4.803       4.472       4.036       3.601       3.190    
        2.810       2.457       2.085       1.807       1.397      0.9723      0.6963      0.4558      0.2366       0.000    
  24    10.00       9.921       9.822       9.725       9.630       9.524       9.424       9.346       9.253       9.037    
        8.704       8.366       8.077       7.819       7.583       7.343       7.086       6.856       6.629       6.345    
        5.916       5.457       5.013       4.196       3.318       3.833       4.327       4.616       4.773       4.901    
        4.966       5.002       5.029       5.005       4.918       4.685       4.314       3.949       3.467       3.031    
        2.735       2.396       2.043       1.689       1.249      0.9020      0.6698      0.4269      0.1883       0.000    
  25    10.00       9.914       9.799       9.680       9.569       9.474       9.397       9.320       9.205       8.981    
        8.631       8.316       8.096       7.856       7.584       7.335       7.094       6.893       6.685       6.322    
        5.830       5.376       4.665       3.332      0.5330       3.238       4.019       4.472       4.708       4.841    
        4.916       4.962       4.981       4.941       4.841       4.591       4.196       3.775       3.384       3.009    
        2.669       2.302       1.902       1.528       1.112      0.8284      0.6672      0.4151      0.1538       0.000    
  26    10.00       9.892       9.745       9.611       9.522       9.445       9.369       9.274       9.138       8.860    
        8.535       8.315       8.104       7.865       7.611       7.372       7.147       6.951       6.691       6.305    
        5.872       5.373       4.753       4.035       3.373       3.729       4.194       4.512       4.703       4.824    
        4.895       4.938       4.936       4.883       4.756       4.471       4.045       3.705       3.387       2.982    
        2.626       2.210       1.751       1.351       1.011      0.8110      0.6312      0.3701      0.1575       0.000    
  27    10.00       9.869       9.711       9.587       9.512       9.411       9.311       9.190       9.008       8.743    
        8.513       8.318       8.103       7.870       7.620       7.431       7.279       7.017       6.690       6.296    
        5.927       5.568       5.075       4.608       4.238       4.300       4.478       4.633       4.753       4.836    
        4.904       4.931       4.912       4.835       4.673       4.358       4.023       3.723       3.353       2.972    
        2.603       2.101       1.577       1.202      0.9651      0.7980      0.6004      0.3914      0.1887       0.000    
  28    10.00       9.852       9.736       9.597       9.468       9.345       9.234       9.091       8.910       8.704    
        8.514       8.338       8.124       7.863       7.642       7.492       7.322       7.030       6.649       6.299    
        6.042       5.778       5.396       5.038       4.807       4.732       4.728       4.773       4.845       4.905    
        4.938       4.934       4.897       4.792       4.591       4.311       4.047       3.697       3.315       2.932    
        2.485       2.013       1.493       1.120      0.9546      0.7950      0.6191      0.4088      0.1895       0.000    
  29    10.00       9.856       9.712       9.565       9.411       9.292       9.166       9.008       8.854       8.691    
        8.520       8.345       8.135       7.915       7.727       7.550       7.323       6.995       6.647       6.378    
        6.163       5.934       5.624       5.309       5.121       5.016       4.950       4.941       4.966       4.974    
        4.963       4.936       4.876       4.746       4.525       4.293       4.052       3.728       3.304       2.822    
        2.414       1.913       1.396       1.104      0.9577      0.8007      0.6145      0.3994      0.1986       0.000    
  30    10.00       9.835       9.690       9.513       9.356       9.247       9.112       8.973       8.853       8.706    
        8.530       8.339       8.146       7.970       7.802       7.602       7.310       7.004       6.730       6.479    
        6.297       6.074       5.795       5.523       5.296       5.198       5.130       5.093       5.059       5.024    
        4.983       4.938       4.856       4.694       4.501       4.321       4.081       3.665       3.147       2.662    
        2.253       1.797       1.404       1.134      0.9797      0.8026      0.6037      0.4187      0.2053       0.000    
  31    10.00       9.813       9.645       9.476       9.335       9.221       9.093       8.969       8.850       8.704    
        8.528       8.334       8.167       8.019       7.859       7.630       7.341       7.081       6.870       6.652    
        6.461       6.212       5.937       5.708       5.476       5.317       5.242       5.172       5.118       5.057    
        5.002       4.934       4.827       4.675       4.495       4.299       3.927       3.471       3.046       2.577    
        2.192       1.739       1.358       1.163      0.9980      0.8313      0.6242      0.4193      0.1987       0.000    
  32    10.00       9.799       9.618       9.472       9.353       9.240       9.105       8.963       8.817       8.679    
        8.503       8.335       8.184       8.020       7.868       7.672       7.450       7.258       7.043       6.820    
        6.628       6.394       6.119       5.877       5.634       5.412       5.315       5.230       5.153       5.068    
        4.995       4.934       4.797       4.619       4.457       4.190       3.739       3.318       2.950       2.524    
        2.078       1.658       1.379       1.229       1.049      0.8387      0.6196      0.3984      0.1987       0.000    
  33    10.00       9.793       9.637       9.520       9.401       9.268       9.105       8.946       8.788       8.629    
        8.482       8.339       8.190       8.033       7.864       7.711       7.549       7.386       7.209       6.991    
        6.765       6.546       6.319       6.038       5.740       5.490       5.354       5.265       5.168       5.066    
        4.989       4.896       4.749       4.588       4.358       3.997       3.546       3.197       2.847       2.356    
        1.954       1.681       1.460       1.282       1.077      0.8553      0.5870      0.3505      0.1579       0.000    
  34    10.00       9.811       9.683       9.573       9.440       9.275       9.103       8.916       8.741       8.606    
        8.475       8.345       8.210       8.046       7.896       7.749       7.608       7.479       7.308       7.082    
        6.869       6.673       6.448       6.153       5.825       5.546       5.377       5.269       5.166       5.053    
        4.955       4.852       4.714       4.513       4.235       3.795       3.365       3.061       2.651       2.224    
        1.979       1.800       1.587       1.357       1.088      0.7757      0.4743      0.2807      0.1163       0.000    
  35    10.00       9.842       9.727       9.614       9.471       9.286       9.088       8.878       8.712       8.597    
        8.509       8.377       8.225       8.050       7.890       7.784       7.681       7.546       7.367       7.153    
        6.951       6.756       6.546       6.209       5.834       5.567       5.384       5.267       5.150       5.021    
        4.926       4.811       4.650       4.383       3.952       3.505       3.226       2.918       2.506       2.253    
        2.083       1.880       1.666       1.442       1.100      0.6595      0.3641      0.2393      0.1214       0.000    
  36    10.00       9.860       9.760       9.652       9.499       9.277       9.035       8.838       8.719       8.631    
        8.510       8.357       8.215       8.060       7.919       7.815       7.715       7.592       7.450       7.250    
        7.039       6.835       6.570       6.198       5.833       5.565       5.393       5.255       5.105       4.986    
        4.873       4.729       4.467       4.071       3.683       3.388       3.134       2.813       2.492       2.327    
        2.155       1.973       1.757       1.468       1.003      0.5550      0.3419      0.2187      0.1124       0.000    
  37    10.00       9.874       9.797       9.679       9.474       9.231       9.017       8.863       8.765       8.658    
        8.500       8.336       8.212       8.077       7.945       7.844       7.750       7.635       7.484       7.305    
        7.134       6.905       6.566       6.212       5.859       5.556       5.345       5.170       5.029       4.911    
        4.779       4.561       4.169       3.820       3.562       3.311       3.054       2.806       2.580       2.397    
        2.232       2.028       1.782       1.402      0.9186      0.5346      0.3200      0.2033      0.1020       0.000    
  38    10.00       9.893       9.799       9.670       9.457       9.205       9.024       8.910       8.807       8.678    
        8.509       8.337       8.216       8.090       7.958       7.855       7.772       7.670       7.517       7.364    
        7.201       6.925       6.533       6.146       5.784       5.483       5.249       5.055       4.923       4.810    
        4.641       4.278       3.945       3.738       3.489       3.246       3.064       2.860       2.655       2.480    
        2.286       2.008       1.697       1.286      0.8060      0.5117      0.3598      0.2242      0.1006       0.000    
  39    10.00       9.891       9.784       9.649       9.442       9.214       9.050       8.948       8.820       8.676    
        8.538       8.365       8.227       8.106       7.977       7.867       7.771       7.668       7.544       7.404    
        7.203       6.896       6.477       6.040       5.668       5.384       5.115       4.913       4.822       4.707    
        4.425       4.072       3.881       3.649       3.421       3.253       3.107       2.922       2.725       2.561    
        2.281       1.888       1.524       1.081      0.7182      0.5541      0.4124      0.2685      0.1381       0.000    
  40    10.00       9.882       9.787       9.649       9.459       9.267       9.106       8.969       8.817       8.685    
        8.581       8.409       8.233       8.110       7.991       7.863       7.756       7.675       7.564       7.383    
        7.142       6.782       6.354       5.940       5.568       5.268       4.955       4.801       4.719       4.562    
        4.310       4.065       3.810       3.576       3.420       3.280       3.141       2.970       2.789       2.575    
        2.197       1.770       1.376       1.018      0.7702      0.6012      0.4601      0.3247      0.1594       0.000    
  41    10.00       9.898       9.822       9.687       9.490       9.290       9.135       9.011       8.861       8.704    
        8.578       8.417       8.252       8.136       7.996       7.843       7.753       7.662       7.508       7.303    
        7.050       6.694       6.263       5.862       5.488       5.083       4.800       4.723       4.628       4.515    
        4.324       4.029       3.777       3.597       3.446       3.322       3.171       3.009       2.822       2.488    
        2.046       1.632       1.290       1.027      0.8131      0.6563      0.5055      0.3570      0.1880       0.000    
  42    10.00       9.923       9.839       9.708       9.538       9.345       9.169       9.041       8.903       8.726    
        8.564       8.410       8.268       8.155       8.005       7.844       7.732       7.605       7.435       7.198    
        6.904       6.513       6.135       5.733       5.243       4.892       4.756       4.693       4.614       4.496    
        4.272       4.016       3.785       3.605       3.485       3.355       3.222       3.047       2.749       2.307    
        1.922       1.615       1.319       1.022      0.8232      0.6899      0.5453      0.3716      0.2062       0.000    
  43    10.00       9.939       9.848       9.713       9.543       9.381       9.225       9.080       8.907       8.721    
        8.571       8.415       8.273       8.168       8.025       7.839       7.687       7.540       7.309       7.008    
        6.723       6.349       6.003       5.538       5.080       4.856       4.751       4.679       4.606       4.481    
        4.268       4.038       3.818       3.646       3.532       3.403       3.228       2.978       2.544       2.154    
        1.915       1.643       1.332       1.025      0.8145      0.6913      0.5799      0.4017      0.1882       0.000    
  44    10.00       9.931       9.853       9.711       9.557       9.440       9.279       9.080       8.882       8.728    
        8.577       8.417       8.293       8.181       8.010       7.806       7.630       7.455       7.182       6.886    
        6.549       6.179       5.811       5.351       5.011       4.847       4.757       4.696       4.615       4.458    
        4.244       4.060       3.868       3.709       3.592       3.413       3.181       2.824       2.385       2.130    
        1.912       1.628       1.318       1.038      0.8239      0.6930      0.5802      0.3933      0.1733       0.000    
  45    10.00       9.917       9.822       9.707       9.594       9.443       9.271       9.080       8.883       8.726    
        8.568       8.423       8.313       8.181       7.991       7.772       7.574       7.377       7.083       6.738    
        6.353       5.965       5.572       5.237       5.005       4.867       4.779       4.714       4.610       4.482    
        4.298       4.090       3.918       3.754       3.585       3.396       3.144       2.765       2.387       2.089    
        1.841       1.575       1.286       1.036      0.8493      0.7409      0.5725      0.3408      0.1553       0.000    
  46    10.00       9.899       9.800       9.709       9.579       9.404       9.237       9.079       8.885       8.716    
        8.575       8.441       8.328       8.168       7.965       7.768       7.558       7.300       6.985       6.612    
        6.162       5.780       5.469       5.216       5.040       4.918       4.809       4.720       4.638       4.496    
        4.299       4.119       3.950       3.760       3.593       3.415       3.131       2.694       2.300       2.035    
        1.803       1.548       1.277       1.058      0.9141      0.7746      0.5189      0.2551      0.1109       0.000    
  47    10.00       9.892       9.792       9.665       9.513       9.369       9.226       9.055       8.877       8.726    
        8.597       8.476       8.314       8.140       7.958       7.766       7.533       7.233       6.940       6.488    
        6.003       5.706       5.440       5.242       5.078       4.958       4.847       4.739       4.644       4.497    
        4.291       4.113       3.941       3.762       3.619       3.403       3.010       2.620       2.291       2.010    
        1.807       1.567       1.326       1.115      0.9359      0.7103      0.4267      0.2230      9.2886E-02   0.000    
  48    10.00       9.880       9.759       9.623       9.486       9.358       9.212       9.056       8.891       8.743    
        8.611       8.467       8.289       8.110       7.932       7.741       7.517       7.235       6.871       6.423    
        6.006       5.703       5.444       5.262       5.129       4.979       4.866       4.776       4.659       4.457    
        4.256       4.082       3.925       3.794       3.605       3.320       2.947       2.597       2.285       2.038    
        1.820       1.591       1.374       1.135      0.8676      0.5769      0.3646      0.2162      9.7696E-02   0.000    
  49    10.00       9.869       9.737       9.604       9.491       9.359       9.204       9.051       8.917       8.763    
        8.604       8.424       8.248       8.098       7.894       7.708       7.522       7.206       6.847       6.492    
        6.052       5.714       5.456       5.297       5.139       4.978       4.891       4.803       4.612       4.371    
        4.199       4.060       3.948       3.776       3.557       3.303       2.931       2.582       2.338       2.076    
        1.818       1.608       1.377       1.096      0.7680      0.5142      0.3646      0.2353      0.1207       0.000    
  50    10.00       9.874       9.742       9.606       9.483       9.353       9.216       9.064       8.924       8.786    
        8.590       8.402       8.241       8.040       7.833       7.690       7.513       7.269       6.913       6.561    
        6.112       5.687       5.463       5.301       5.136       5.005       4.900       4.781       4.556       4.327    
        4.186       4.071       3.939       3.761       3.559       3.317       2.940       2.583       2.346       2.109    
        1.865       1.600       1.340       1.039      0.7159      0.5262      0.3923      0.2659      0.1604       0.000    

 HEAD WILL BE SAVED ON UNIT   51 AT END OF TIME STEP  25, STRESS PERIOD    2

 DRAWDOWN WILL BE SAVED ON UNIT   52 AT END OF TIME STEP  25, STRESS PERIOD    2
1
  VOLUMETRIC BUDGET FOR ENTIRE MODEL AT END OF TIME STEP 25 IN STRESS PERIOD   2
  ------------------------------------------------------------------------------

     CUMULATIVE VOLUMES      L**3       RATES FOR THIS TIME STEP      L**3/T
     ------------------                 ------------------------

           IN:                                      IN:
           ---                                      ---
             STORAGE =       12491.6641               STORAGE =         498.3441
       CONSTANT HEAD =        9692.1240         CONSTANT HEAD =         374.0728
               WELLS =           0.0000                 WELLS =           0.0000

            TOTAL IN =       22183.7891              TOTAL IN =         872.4169

          OUT:                                     OUT:
          ----                                     ----
             STORAGE =       1.1143E-02               STORAGE =           0.0000
       CONSTANT HEAD =        9683.7754         CONSTANT HEAD =         372.4174
               WELLS =       12500.0000                 WELLS =         500.0000

           TOTAL OUT =       22183.7871             TOTAL OUT =         872.4175

            IN - OUT =       1.9531E-03              IN - OUT =      -6.1035E-04

 PERCENT DISCREPANCY =           0.00     PERCENT DISCREPANCY =           0.00






          TIME SUMMARY AT END OF TIME STEP  25 IN STRESS PERIOD    2
                    SECONDS     MINUTES      HOURS       DAYS        YEARS
                    -----------------------------------------------------------
   TIME STEP LENGTH  86400.      1440.0      24.000      1.0000     2.73785E-03
 STRESS PERIOD TIME 2.16000E+06  36000.      600.00      25.000     6.84463E-02
         TOTAL TIME 2.24640E+06  37440.      624.00      26.000     7.11841E-02
1
 
 SOLVING FOR HEAD 

 OUTPUT CONTROL FOR STRESS PERIOD    2   TIME STEP  26
    SAVE HEAD FOR ALL LAYERS
    SAVE DRAWDOWN FOR ALL LAYERS
    SAVE BUDGET
    PRINT HEAD FOR ALL LAYERS
    PRINT BUDGET
 UBDSV1 SAVING "         STORAGE" ON UNIT  53 AT TIME STEP 26, STRESS PERIOD   2
 UBDSV2 SAVING "   CONSTANT HEAD" ON UNIT  53 AT TIME STEP 26, STRESS PERIOD   2
 UBDSV1 SAVING "FLOW RIGHT FACE " ON UNIT  53 AT TIME STEP 26, STRESS PERIOD   2
 UBDSV1 SAVING "FLOW FRONT FACE " ON UNIT  53 AT TIME STEP 26, STRESS PERIOD   2
1
              HEAD IN LAYER   1 AT END OF TIME STEP  26 IN STRESS PERIOD    2
  ---------------------------------------------------------------------------

            1           2           3           4           5           6           7           8           9          10
           11          12          13          14          15          16          17          18          19          20
           21          22          23          24          25          26          27          28          29          30
           31          32          33          34          35          36          37          38          39          40
           41          42          43          44          45          46          47          48          49          50
 ........................................................................................................................
   1    10.00       9.953       9.906       9.851       9.808       9.771       9.722       9.654       9.580       9.512    
        9.362       9.174       9.035       8.880       8.715       8.548       8.393       8.215       7.977       7.740    
        7.579       7.393       7.150       6.903       6.682       6.490       6.215       5.965       5.789       5.603    
        5.442       5.336       5.219       5.085       4.957       4.798       4.627       4.396       4.132       3.844    
        3.474       3.098       2.606       2.072       1.670       1.381       1.165      0.9188      0.5393       0.000    
   2    10.00       9.948       9.898       9.852       9.815       9.779       9.725       9.656       9.588       9.496    
        9.349       9.181       9.024       8.883       8.731       8.559       8.375       8.192       7.970       7.732    
        7.556       7.404       7.144       6.878       6.681       6.464       6.200       5.961       5.759       5.584    
        5.446       5.348       5.249       5.106       4.956       4.798       4.602       4.386       4.131       3.802    
        3.456       3.136       2.619       2.088       1.731       1.474       1.225      0.9489      0.5727       0.000    
   3    10.00       9.940       9.898       9.866       9.831       9.794       9.735       9.653       9.571       9.471    
        9.338       9.189       9.038       8.896       8.715       8.500       8.322       8.163       7.960       7.750    
        7.569       7.354       7.100       6.864       6.652       6.409       6.158       5.923       5.714       5.582    
        5.467       5.372       5.272       5.114       4.957       4.790       4.595       4.355       4.069       3.818    
        3.509       3.072       2.569       2.186       1.882       1.582       1.276      0.9618      0.5427       0.000    
   4    10.00       9.940       9.903       9.874       9.850       9.810       9.743       9.649       9.551       9.452    
        9.325       9.191       9.041       8.863       8.642       8.443       8.315       8.137       7.940       7.777    
        7.531       7.260       7.037       6.828       6.623       6.334       6.057       5.870       5.724       5.608    
        5.504       5.403       5.295       5.113       4.919       4.768       4.564       4.314       4.069       3.847    
        3.497       3.015       2.634       2.310       1.983       1.642       1.272      0.9055      0.4639       0.000    
   5    10.00       9.945       9.911       9.882       9.860       9.820       9.749       9.641       9.533       9.434    
        9.326       9.188       8.997       8.789       8.602       8.445       8.286       8.121       7.936       7.708    
        7.426       7.202       7.016       6.804       6.543       6.246       6.016       5.881       5.761       5.644    
        5.525       5.402       5.279       5.106       4.908       4.725       4.541       4.343       4.118       3.823    
        3.426       3.058       2.730       2.403       2.046       1.648       1.184      0.7628      0.3949       0.000    
   6    10.00       9.954       9.921       9.893       9.863       9.819       9.743       9.627       9.533       9.427    
        9.307       9.137       8.928       8.756       8.584       8.406       8.245       8.098       7.893       7.636    
        7.385       7.171       6.982       6.724       6.441       6.214       6.026       5.898       5.768       5.648    
        5.542       5.407       5.253       5.074       4.882       4.725       4.562       4.381       4.143       3.825    
        3.475       3.118       2.782       2.451       2.063       1.582       1.082      0.7176      0.3694       0.000    
   7    10.00       9.960       9.931       9.902       9.869       9.816       9.715       9.604       9.507       9.376    
        9.254       9.075       8.886       8.710       8.534       8.356       8.199       8.065       7.832       7.558    
        7.334       7.119       6.909       6.658       6.417       6.208       6.042       5.895       5.757       5.659    
        5.550       5.404       5.239       5.055       4.888       4.747       4.597       4.409       4.163       3.871    
        3.522       3.152       2.803       2.438       2.054       1.549       1.036      0.6837      0.3235       0.000    
   8    10.00       9.967       9.941       9.909       9.872       9.787       9.665       9.559       9.438       9.314    
        9.179       8.998       8.838       8.660       8.466       8.293       8.158       8.000       7.783       7.519    
        7.260       7.062       6.888       6.633       6.385       6.198       6.012       5.855       5.757       5.664    
        5.536       5.389       5.248       5.083       4.903       4.755       4.640       4.494       4.249       3.911    
        3.527       3.197       2.869       2.443       2.014       1.450      0.9595      0.6699      0.3100       0.000    
   9    10.00       9.974       9.945       9.909       9.847       9.736       9.606       9.484       9.378       9.251    
        9.093       8.932       8.775       8.606       8.407       8.245       8.119       7.935       7.724       7.458    
        7.232       7.038       6.798       6.541       6.332       6.166       5.978       5.840       5.744       5.640    
        5.522       5.388       5.255       5.109       4.954       4.807       4.684       4.553       4.299       3.931    
        3.575       3.279       2.933       2.520       1.885       1.248      0.9143      0.5666      0.2161       0.000    
  10    10.00       9.974       9.944       9.894       9.799       9.667       9.525       9.430       9.329       9.181    
        9.043       8.885       8.729       8.548       8.366       8.221       8.055       7.866       7.644       7.430    
        7.210       6.920       6.675       6.471       6.291       6.142       5.969       5.825       5.730       5.639    
        5.512       5.368       5.247       5.112       4.973       4.870       4.746       4.592       4.300       3.934    
        3.652       3.390       2.991       2.369       1.634       1.172      0.8301      0.5067      0.2527       0.000    
  11    10.00       9.974       9.935       9.857       9.750       9.604       9.478       9.399       9.280       9.154    
        9.022       8.857       8.672       8.480       8.327       8.174       8.021       7.818       7.605       7.395    
        7.092       6.812       6.613       6.427       6.252       6.089       5.928       5.811       5.729       5.639    
        5.496       5.359       5.255       5.132       5.014       4.898       4.757       4.590       4.315       4.018    
        3.720       3.377       2.942       2.256       1.568       1.102      0.7782      0.5902      0.3259       0.000    
  12    10.00       9.973       9.917       9.817       9.679       9.534       9.435       9.357       9.253       9.139    
        8.996       8.822       8.637       8.467       8.311       8.142       7.967       7.764       7.549       7.271    
        6.974       6.759       6.564       6.376       6.185       6.021       5.904       5.811       5.708       5.598    
        5.472       5.364       5.271       5.170       5.063       4.946       4.792       4.585       4.328       4.058    
        3.738       3.364       2.769       1.999       1.414       1.086      0.8644      0.6264      0.3570       0.000    
  13    10.00       9.963       9.878       9.742       9.598       9.475       9.396       9.327       9.240       9.131    
        8.981       8.801       8.631       8.495       8.315       8.109       7.905       7.686       7.450       7.181    
        6.920       6.689       6.479       6.287       6.104       5.981       5.899       5.779       5.647       5.549    
        5.464       5.375       5.289       5.201       5.100       4.995       4.852       4.613       4.346       4.025    
        3.657       3.187       2.499       1.874       1.449       1.168      0.9089      0.6281      0.3102       0.000    
  14    10.00       9.934       9.811       9.663       9.530       9.434       9.381       9.319       9.235       9.117    
        8.953       8.800       8.660       8.518       8.319       8.077       7.859       7.612       7.349       7.071    
        6.818       6.589       6.381       6.191       6.044       5.959       5.862       5.720       5.605       5.526    
        5.462       5.379       5.304       5.219       5.126       5.039       4.872       4.627       4.342       3.943    
        3.509       2.956       2.425       1.968       1.543       1.214      0.9252      0.6287      0.2799       0.000    
  15    10.00       9.877       9.742       9.609       9.504       9.430       9.372       9.314       9.232       9.123    
        8.979       8.830       8.694       8.498       8.270       8.041       7.796       7.540       7.229       6.931    
        6.696       6.475       6.277       6.126       6.013       5.919       5.808       5.672       5.576       5.516    
        5.446       5.376       5.315       5.236       5.146       5.052       4.876       4.640       4.283       3.851    
        3.401       2.901       2.469       1.996       1.637       1.286      0.9365      0.6226      0.2553       0.000    
  16    10.00       9.857       9.711       9.591       9.500       9.433       9.373       9.320       9.242       9.129    
        8.995       8.854       8.691       8.449       8.203       8.014       7.776       7.434       7.078       6.798    
        6.552       6.363       6.202       6.070       5.946       5.860       5.739       5.625       5.547       5.479    
        5.426       5.375       5.308       5.237       5.156       5.049       4.887       4.602       4.211       3.815    
        3.427       2.942       2.454       2.036       1.697       1.328      0.9334      0.5577      0.2099       0.000    
  17    10.00       9.839       9.693       9.596       9.516       9.448       9.390       9.329       9.245       9.141    
        9.018       8.844       8.625       8.367       8.160       7.982       7.699       7.319       6.953       6.679    
        6.476       6.265       6.085       5.951       5.847       5.742       5.633       5.556       5.489       5.442    
        5.413       5.366       5.295       5.222       5.141       5.026       4.834       4.587       4.265       3.845    
        3.398       2.886       2.433       2.063       1.716       1.337      0.9531      0.5810      0.2455       0.000    
  18    10.00       9.830       9.693       9.610       9.537       9.472       9.415       9.342       9.260       9.149    
        9.002       8.800       8.558       8.339       8.137       7.882       7.554       7.208       6.885       6.614    
        6.365       6.094       5.935       5.823       5.731       5.614       5.540       5.474       5.429       5.412    
        5.389       5.345       5.274       5.191       5.106       4.981       4.794       4.588       4.308       3.917    
        3.333       2.787       2.417       2.065       1.769       1.371      0.9472      0.5692      0.2451       0.000    
  19    10.00       9.838       9.724       9.638       9.561       9.496       9.428       9.361       9.285       9.158    
        8.986       8.771       8.532       8.291       8.027       7.752       7.447       7.112       6.787       6.499    
        6.210       5.967       5.838       5.748       5.623       5.518       5.454       5.397       5.379       5.368    
        5.353       5.315       5.234       5.152       5.077       4.977       4.795       4.566       4.281       3.822    
        3.236       2.771       2.402       2.056       1.724       1.313      0.9091      0.5655      0.2664       0.000    
  20    10.00       9.847       9.750       9.675       9.601       9.523       9.443       9.371       9.295       9.166    
        8.981       8.758       8.481       8.170       7.868       7.643       7.336       6.974       6.685       6.397    
        6.138       5.934       5.777       5.643       5.486       5.410       5.365       5.333       5.329       5.322    
        5.314       5.267       5.191       5.133       5.061       4.954       4.746       4.513       4.187       3.674    
        3.168       2.796       2.370       1.975       1.615       1.211      0.9115      0.5613      0.2488       0.000    
  21    10.00       9.869       9.782       9.707       9.626       9.552       9.463       9.386       9.303       9.159    
        8.960       8.691       8.349       7.986       7.702       7.495       7.205       6.938       6.665       6.353    
        6.105       5.881       5.686       5.435       5.303       5.263       5.204       5.230       5.257       5.252    
        5.242       5.199       5.158       5.114       5.043       4.891       4.680       4.475       4.001       3.471    
        3.096       2.696       2.262       1.896       1.515       1.162      0.8251      0.4944      0.2483       0.000    
  22    10.00       9.898       9.806       9.724       9.646       9.576       9.476       9.375       9.280       9.132    
        8.892       8.555       8.170       7.828       7.583       7.364       7.141       6.947       6.649       6.343    
        6.083       5.767       5.419       5.152       5.052       4.956       4.966       5.060       5.099       5.119    
        5.131       5.117       5.110       5.088       5.017       4.847       4.625       4.252       3.719       3.382    
        2.980       2.552       2.164       1.812       1.488       1.070      0.7158      0.4740      0.2664       0.000    
  23    10.00       9.899       9.811       9.737       9.654       9.562       9.450       9.359       9.275       9.090    
        8.796       8.435       8.083       7.784       7.533       7.348       7.137       6.883       6.597       6.353    
        5.993       5.529       5.155       4.881       4.484       4.485       4.695       4.817       4.905       4.985    
        5.019       5.039       5.056       5.049       4.972       4.791       4.464       4.032       3.598       3.189    
        2.809       2.457       2.084       1.807       1.397      0.9723      0.6963      0.4558      0.2366       0.000    
  24    10.00       9.921       9.821       9.724       9.629       9.524       9.423       9.345       9.252       9.034    
        8.699       8.358       8.068       7.807       7.569       7.326       7.068       6.835       6.608       6.322    
        5.891       5.430       4.986       4.167       3.289       3.805       4.299       4.588       4.746       4.874    
        4.940       4.977       5.005       4.984       4.900       4.672       4.306       3.944       3.465       3.030    
        2.734       2.395       2.043       1.688       1.249      0.9020      0.6698      0.4269      0.1883       0.000    
  25    10.00       9.914       9.799       9.680       9.569       9.473       9.396       9.319       9.203       8.978    
        8.626       8.309       8.086       7.845       7.569       7.318       7.076       6.873       6.664       6.298    
        5.804       5.349       4.637       3.303      0.5015       3.209       3.990       4.444       4.680       4.814    
        4.890       4.937       4.957       4.920       4.823       4.578       4.189       3.771       3.382       3.008    
        2.669       2.301       1.901       1.528       1.112      0.8284      0.6671      0.4151      0.1538       0.000    
  26    10.00       9.892       9.744       9.611       9.522       9.444       9.368       9.272       9.136       8.857    
        8.529       8.308       8.095       7.854       7.597       7.356       7.129       6.931       6.670       6.281    
        5.847       5.346       4.724       4.006       3.343       3.699       4.165       4.483       4.675       4.797    
        4.868       4.912       4.912       4.862       4.738       4.459       4.038       3.701       3.384       2.980    
        2.625       2.210       1.751       1.351       1.011      0.8110      0.6312      0.3701      0.1575       0.000    
  27    10.00       9.869       9.711       9.586       9.511       9.410       9.310       9.188       9.006       8.740    
        8.508       8.311       8.095       7.859       7.606       7.416       7.262       6.998       6.668       6.272    
        5.902       5.542       5.047       4.579       4.209       4.271       4.450       4.605       4.725       4.809    
        4.878       4.906       4.889       4.814       4.657       4.347       4.015       3.717       3.350       2.970    
        2.602       2.101       1.577       1.202      0.9651      0.7980      0.6004      0.3914      0.1887       0.000    
  28    10.00       9.851       9.736       9.596       9.467       9.344       9.233       9.089       8.907       8.700    
        8.508       8.331       8.116       7.853       7.629       7.478       7.306       7.012       6.628       6.276    
        6.018       5.753       5.369       5.010       4.779       4.704       4.699       4.745       4.817       4.879    
        4.913       4.911       4.875       4.773       4.576       4.300       4.039       3.692       3.311       2.930    
        2.484       2.013       1.493       1.120      0.9546      0.7949      0.6191      0.4088      0.1895       0.000    
  29    10.00       9.856       9.712       9.564       9.410       9.290       9.165       9.005       8.851       8.687    
        8.515       8.339       8.127       7.905       7.715       7.537       7.307       6.977       6.627       6.356    
        6.139       5.909       5.599       5.282       5.093       4.989       4.923       4.915       4.940       4.949    
        4.939       4.914       4.856       4.728       4.512       4.282       4.044       3.723       3.301       2.820    
        2.413       1.913       1.395       1.104      0.9577      0.8007      0.6145      0.3994      0.1985       0.000    
  30    10.00       9.835       9.690       9.512       9.355       9.246       9.111       8.970       8.851       8.702    
        8.525       8.333       8.138       7.961       7.792       7.590       7.295       6.987       6.710       6.458    
        6.275       6.051       5.771       5.497       5.270       5.172       5.105       5.068       5.035       5.001    
        4.961       4.917       4.837       4.678       4.488       4.310       4.073       3.660       3.144       2.661    
        2.253       1.797       1.404       1.134      0.9796      0.8026      0.6037      0.4187      0.2053       0.000    
  31    10.00       9.813       9.645       9.475       9.333       9.220       9.091       8.967       8.847       8.700    
        8.523       8.328       8.160       8.011       7.849       7.619       7.328       7.065       6.852       6.633    
        6.441       6.190       5.914       5.684       5.452       5.293       5.218       5.149       5.095       5.035    
        4.981       4.914       4.810       4.660       4.482       4.288       3.920       3.467       3.044       2.575    
        2.191       1.739       1.357       1.162      0.9980      0.8313      0.6242      0.4193      0.1987       0.000    
  32    10.00       9.799       9.617       9.472       9.352       9.238       9.104       8.961       8.815       8.675    
        8.499       8.329       8.178       8.012       7.859       7.661       7.438       7.244       7.028       6.803    
        6.610       6.374       6.098       5.855       5.612       5.389       5.293       5.208       5.132       5.048    
        4.977       4.916       4.781       4.606       4.445       4.181       3.734       3.315       2.948       2.523    
        2.077       1.658       1.379       1.229       1.049      0.8386      0.6196      0.3984      0.1987       0.000    
  33    10.00       9.792       9.637       9.520       9.400       9.266       9.103       8.944       8.785       8.625    
        8.478       8.334       8.184       8.026       7.855       7.702       7.539       7.374       7.196       6.976    
        6.749       6.528       6.300       6.018       5.719       5.469       5.334       5.245       5.149       5.048    
        4.971       4.880       4.735       4.575       4.347       3.990       3.541       3.194       2.845       2.355    
        1.953       1.681       1.460       1.282       1.077      0.8553      0.5870      0.3505      0.1579       0.000    
  34    10.00       9.810       9.683       9.572       9.439       9.274       9.102       8.913       8.738       8.603    
        8.471       8.340       8.204       8.040       7.889       7.740       7.599       7.468       7.296       7.069    
        6.855       6.657       6.431       6.136       5.807       5.528       5.358       5.251       5.149       5.036    
        4.940       4.838       4.701       4.502       4.226       3.790       3.361       3.058       2.650       2.223    
        1.979       1.800       1.587       1.357       1.087      0.7756      0.4742      0.2807      0.1163       0.000    
  35    10.00       9.841       9.726       9.614       9.470       9.284       9.086       8.876       8.709       8.594    
        8.506       8.373       8.220       8.044       7.883       7.776       7.673       7.536       7.357       7.141    
        6.938       6.742       6.531       6.193       5.818       5.550       5.367       5.251       5.134       5.006    
        4.912       4.798       4.638       4.373       3.946       3.501       3.223       2.916       2.505       2.252    
        2.083       1.880       1.666       1.442       1.100      0.6594      0.3641      0.2393      0.1214       0.000    
  36    10.00       9.860       9.760       9.651       9.498       9.276       9.033       8.835       8.716       8.628    
        8.507       8.353       8.211       8.054       7.913       7.808       7.707       7.584       7.441       7.240    
        7.028       6.823       6.557       6.185       5.819       5.550       5.379       5.241       5.091       4.972    
        4.861       4.717       4.458       4.064       3.679       3.385       3.132       2.812       2.491       2.326    
        2.155       1.973       1.756       1.468       1.003      0.5549      0.3418      0.2187      0.1124       0.000    
  37    10.00       9.874       9.796       9.679       9.474       9.230       9.015       8.862       8.763       8.656    
        8.497       8.332       8.208       8.073       7.940       7.838       7.743       7.628       7.476       7.297    
        7.124       6.895       6.556       6.201       5.848       5.544       5.333       5.158       5.018       4.900    
        4.768       4.552       4.163       3.816       3.559       3.309       3.052       2.805       2.580       2.396    
        2.231       2.027       1.782       1.402      0.9185      0.5346      0.3200      0.2033      0.1019       0.000    
  38    10.00       9.893       9.798       9.669       9.456       9.204       9.022       8.908       8.805       8.676    
        8.506       8.334       8.212       8.086       7.953       7.850       7.766       7.664       7.511       7.357    
        7.194       6.918       6.525       6.138       5.776       5.475       5.240       5.047       4.915       4.802    
        4.633       4.272       3.941       3.735       3.486       3.244       3.063       2.859       2.654       2.479    
        2.285       2.007       1.696       1.285      0.8059      0.5117      0.3598      0.2242      0.1006       0.000    
  39    10.00       9.891       9.783       9.648       9.442       9.214       9.049       8.947       8.818       8.674    
        8.536       8.362       8.223       8.102       7.973       7.862       7.766       7.663       7.539       7.398    
        7.197       6.891       6.472       6.034       5.662       5.378       5.109       4.908       4.817       4.701    
        4.420       4.069       3.878       3.646       3.419       3.252       3.106       2.921       2.724       2.560    
        2.280       1.888       1.524       1.080      0.7182      0.5541      0.4124      0.2684      0.1381       0.000    
  40    10.00       9.882       9.787       9.649       9.459       9.266       9.105       8.968       8.815       8.683    
        8.579       8.407       8.230       8.107       7.987       7.859       7.752       7.671       7.560       7.379    
        7.138       6.779       6.350       5.937       5.564       5.264       4.951       4.798       4.715       4.559    
        4.307       4.063       3.807       3.574       3.419       3.279       3.140       2.969       2.788       2.575    
        2.196       1.769       1.376       1.018      0.7702      0.6012      0.4601      0.3246      0.1594       0.000    
  41    10.00       9.898       9.822       9.687       9.490       9.289       9.134       9.010       8.860       8.702    
        8.576       8.415       8.250       8.134       7.993       7.839       7.749       7.658       7.505       7.300    
        7.047       6.692       6.261       5.860       5.486       5.080       4.798       4.721       4.626       4.513    
        4.321       4.027       3.775       3.596       3.445       3.321       3.170       3.008       2.821       2.488    
        2.046       1.632       1.290       1.027      0.8131      0.6562      0.5055      0.3570      0.1879       0.000    
  42    10.00       9.923       9.839       9.708       9.537       9.344       9.168       9.040       8.902       8.725    
        8.562       8.408       8.266       8.153       8.003       7.842       7.729       7.602       7.433       7.196    
        6.902       6.511       6.133       5.732       5.241       4.890       4.754       4.692       4.613       4.494    
        4.270       4.014       3.784       3.604       3.484       3.354       3.221       3.046       2.749       2.306    
        1.922       1.614       1.319       1.022      0.8231      0.6898      0.5453      0.3716      0.2062       0.000    
  43    10.00       9.939       9.847       9.713       9.543       9.381       9.224       9.080       8.906       8.720    
        8.571       8.414       8.272       8.167       8.023       7.837       7.685       7.539       7.307       7.007    
        6.722       6.348       6.002       5.538       5.079       4.855       4.750       4.678       4.604       4.480    
        4.267       4.037       3.817       3.645       3.531       3.402       3.227       2.978       2.543       2.154    
        1.915       1.643       1.332       1.025      0.8145      0.6913      0.5799      0.4017      0.1882       0.000    
  44    10.00       9.931       9.853       9.711       9.556       9.440       9.279       9.080       8.882       8.727    
        8.576       8.417       8.292       8.180       8.009       7.805       7.628       7.454       7.181       6.885    
        6.548       6.178       5.811       5.350       5.010       4.846       4.756       4.695       4.614       4.457    
        4.243       4.059       3.867       3.708       3.591       3.412       3.180       2.823       2.385       2.130    
        1.912       1.628       1.318       1.038      0.8239      0.6930      0.5802      0.3933      0.1733       0.000    
  45    10.00       9.917       9.822       9.707       9.594       9.442       9.271       9.079       8.883       8.726    
        8.567       8.423       8.312       8.180       7.991       7.771       7.573       7.376       7.083       6.737    
        6.352       5.965       5.571       5.237       5.004       4.866       4.778       4.713       4.609       4.481    
        4.297       4.089       3.918       3.754       3.585       3.396       3.143       2.764       2.387       2.089    
        1.841       1.575       1.286       1.036      0.8493      0.7409      0.5725      0.3407      0.1553       0.000    
  46    10.00       9.899       9.800       9.709       9.579       9.404       9.237       9.079       8.885       8.716    
        8.575       8.441       8.328       8.168       7.965       7.768       7.558       7.300       6.985       6.612    
        6.162       5.779       5.468       5.216       5.040       4.917       4.809       4.719       4.637       4.495    
        4.299       4.118       3.949       3.759       3.592       3.414       3.130       2.694       2.300       2.035    
        1.803       1.548       1.277       1.058      0.9141      0.7745      0.5189      0.2551      0.1109       0.000    
  47    10.00       9.892       9.792       9.665       9.513       9.369       9.226       9.055       8.877       8.726    
        8.597       8.476       8.314       8.140       7.958       7.766       7.533       7.233       6.940       6.487    
        6.003       5.706       5.440       5.242       5.078       4.958       4.847       4.739       4.644       4.496    
        4.290       4.112       3.941       3.762       3.619       3.403       3.010       2.620       2.291       2.010    
        1.807       1.567       1.326       1.115      0.9359      0.7103      0.4267      0.2230      9.2886E-02   0.000    
  48    10.00       9.880       9.759       9.623       9.485       9.358       9.212       9.056       8.891       8.743    
        8.610       8.467       8.289       8.110       7.932       7.741       7.517       7.235       6.871       6.423    
        6.006       5.702       5.443       5.262       5.128       4.979       4.866       4.776       4.658       4.457    
        4.256       4.082       3.925       3.793       3.604       3.320       2.947       2.597       2.285       2.038    
        1.820       1.591       1.374       1.135      0.8676      0.5769      0.3646      0.2162      9.7696E-02   0.000    
  49    10.00       9.869       9.737       9.604       9.491       9.359       9.204       9.051       8.917       8.763    
        8.604       8.423       8.248       8.098       7.894       7.708       7.522       7.206       6.847       6.491    
        6.052       5.713       5.456       5.297       5.139       4.978       4.890       4.803       4.612       4.371    
        4.199       4.060       3.947       3.776       3.557       3.303       2.931       2.582       2.338       2.076    
        1.818       1.608       1.377       1.096      0.7680      0.5142      0.3646      0.2353      0.1207       0.000    
  50    10.00       9.874       9.742       9.606       9.483       9.353       9.216       9.064       8.924       8.786    
        8.590       8.402       8.241       8.040       7.833       7.690       7.513       7.269       6.913       6.561    
        6.112       5.686       5.462       5.301       5.136       5.005       4.900       4.781       4.555       4.327    
        4.185       4.071       3.939       3.761       3.559       3.317       2.940       2.583       2.346       2.109    
        1.865       1.600       1.340       1.039      0.7159      0.5262      0.3923      0.2659      0.1604       0.000    

 HEAD WILL BE SAVED ON UNIT   51 AT END OF TIME STEP  26, STRESS PERIOD    2

 DRAWDOWN WILL BE SAVED ON UNIT   52 AT END OF TIME STEP  26, STRESS PERIOD    2
1
  VOLUMETRIC BUDGET FOR ENTIRE MODEL AT END OF TIME STEP 26 IN STRESS PERIOD   2
  ------------------------------------------------------------------------------

     CUMULATIVE VOLUMES      L**3       RATES FOR THIS TIME STEP      L**3/T
     ------------------                 ------------------------

           IN:                                      IN:
           ---                                      ---
             STORAGE =       12989.7168               STORAGE =         498.0528
       CONSTANT HEAD =       10066.4775         CONSTANT HEAD =         374.3534
               WELLS =           0.0000                 WELLS =           0.0000

            TOTAL IN =       23056.1953              TOTAL IN =         872.4061

          OUT:                                     OUT:
          ----                                     ----
             STORAGE =       1.1143E-02               STORAGE =           0.0000
       CONSTANT HEAD =       10056.1816         CONSTANT HEAD =         372.4059
               WELLS =       13000.0000                 WELLS =         500.0000

           TOTAL OUT =       23056.1934             TOTAL OUT =         872.4059

            IN - OUT =       1.9531E-03              IN - OUT =       2.4414E-04

 PERCENT DISCREPANCY =           0.00     PERCENT DISCREPANCY =           0.00






          TIME SUMMARY AT END OF TIME STEP  26 IN STRESS PERIOD    2
                    SECONDS     MINUTES      HOURS       DAYS        YEARS
                    -----------------------------------------------------------
   TIME STEP LENGTH  86400.      1440.0      24.000      1.0000     2.73785E-03
 STRESS PERIOD TIME 2.24640E+06  37440.      624.00      26.000     7.11841E-02
         TOTAL TIME 2.33280E+06  38880.      648.00      27.000     7.39220E-02
1
 
 SOLVING FOR HEAD 

 OUTPUT CONTROL FOR STRESS PERIOD    2   TIME STEP  27
    SAVE HEAD FOR ALL LAYERS
    SAVE DRAWDOWN FOR ALL LAYERS
    SAVE BUDGET
    PRINT HEAD FOR ALL LAYERS
    PRINT BUDGET
 UBDSV1 SAVING "         STORAGE" ON UNIT  53 AT TIME STEP 27, STRESS PERIOD   2
 UBDSV2 SAVING "   CONSTANT HEAD" ON UNIT  53 AT TIME STEP 27, STRESS PERIOD   2
 UBDSV1 SAVING "FLOW RIGHT FACE " ON UNIT  53 AT TIME STEP 27, STRESS PERIOD   2
 UBDSV1 SAVING "FLOW FRONT FACE " ON UNIT  53 AT TIME STEP 27, STRESS PERIOD   2
1
              HEAD IN LAYER   1 AT END OF TIME STEP  27 IN STRESS PERIOD    2
  ---------------------------------------------------------------------------

            1           2           3           4           5           6           7           8           9          10
           11          12          13          14          15          16          17          18          19          20
           21          22          23          24          25          26          27          28          29          30
           31          32          33          34          35          36          37          38          39          40
           41          42          43          44          45          46          47          48          49          50
 ........................................................................................................................
   1    10.00       9.953       9.906       9.851       9.808       9.771       9.722       9.654       9.580       9.512    
        9.362       9.173       9.034       8.880       8.714       8.548       8.393       8.215       7.976       7.740    
        7.578       7.393       7.149       6.902       6.681       6.489       6.214       5.964       5.787       5.601    
        5.440       5.334       5.217       5.084       4.956       4.797       4.626       4.395       4.132       3.843    
        3.473       3.098       2.606       2.072       1.670       1.381       1.165      0.9188      0.5393       0.000    
   2    10.00       9.948       9.898       9.852       9.815       9.779       9.725       9.656       9.588       9.496    
        9.349       9.180       9.024       8.883       8.731       8.559       8.375       8.192       7.970       7.731    
        7.555       7.403       7.143       6.877       6.680       6.463       6.199       5.960       5.758       5.582    
        5.445       5.346       5.247       5.104       4.955       4.797       4.601       4.386       4.130       3.802    
        3.455       3.135       2.619       2.088       1.731       1.473       1.225      0.9489      0.5727       0.000    
   3    10.00       9.940       9.898       9.866       9.830       9.794       9.735       9.653       9.570       9.471    
        9.337       9.188       9.038       8.895       8.715       8.500       8.321       8.163       7.959       7.749    
        7.568       7.353       7.098       6.863       6.650       6.407       6.156       5.921       5.712       5.580    
        5.465       5.370       5.270       5.113       4.956       4.788       4.594       4.354       4.068       3.817    
        3.509       3.072       2.569       2.186       1.882       1.582       1.276      0.9617      0.5427       0.000    
   4    10.00       9.940       9.903       9.874       9.850       9.810       9.743       9.649       9.551       9.452    
        9.325       9.191       9.041       8.863       8.641       8.442       8.314       8.136       7.939       7.776    
        7.530       7.259       7.035       6.827       6.621       6.332       6.055       5.868       5.722       5.606    
        5.502       5.401       5.293       5.111       4.918       4.767       4.562       4.313       4.068       3.846    
        3.496       3.014       2.633       2.310       1.983       1.642       1.272      0.9055      0.4639       0.000    
   5    10.00       9.945       9.911       9.882       9.860       9.820       9.749       9.641       9.533       9.433    
        9.326       9.188       8.996       8.789       8.602       8.444       8.285       8.120       7.936       7.707    
        7.424       7.200       7.014       6.803       6.541       6.243       6.014       5.878       5.758       5.642    
        5.522       5.399       5.277       5.104       4.906       4.723       4.539       4.341       4.117       3.822    
        3.425       3.057       2.729       2.403       2.045       1.648       1.184      0.7628      0.3949       0.000    
   6    10.00       9.954       9.921       9.893       9.863       9.819       9.743       9.627       9.532       9.426    
        9.307       9.137       8.928       8.755       8.583       8.405       8.244       8.097       7.892       7.634    
        7.384       7.169       6.980       6.721       6.438       6.211       6.023       5.895       5.765       5.645    
        5.539       5.404       5.250       5.071       4.880       4.722       4.560       4.380       4.142       3.824    
        3.475       3.117       2.781       2.451       2.063       1.582       1.082      0.7176      0.3693       0.000    
   7    10.00       9.960       9.931       9.902       9.869       9.816       9.715       9.604       9.506       9.376    
        9.253       9.075       8.885       8.709       8.533       8.355       8.198       8.063       7.830       7.556    
        7.332       7.116       6.906       6.655       6.413       6.204       6.039       5.891       5.753       5.655    
        5.546       5.400       5.236       5.052       4.885       4.744       4.594       4.407       4.161       3.870    
        3.521       3.152       2.803       2.438       2.054       1.549       1.035      0.6837      0.3235       0.000    
   8    10.00       9.967       9.941       9.909       9.872       9.787       9.664       9.559       9.437       9.314    
        9.179       8.997       8.838       8.659       8.464       8.292       8.156       7.998       7.781       7.516    
        7.257       7.058       6.884       6.628       6.380       6.193       6.007       5.849       5.751       5.659    
        5.531       5.384       5.244       5.079       4.900       4.751       4.636       4.491       4.247       3.909    
        3.526       3.196       2.869       2.443       2.014       1.450      0.9595      0.6698      0.3099       0.000    
   9    10.00       9.974       9.945       9.909       9.847       9.735       9.606       9.484       9.377       9.250    
        9.092       8.931       8.774       8.604       8.405       8.243       8.117       7.933       7.720       7.455    
        7.228       7.033       6.793       6.535       6.325       6.159       5.971       5.833       5.737       5.633    
        5.516       5.382       5.249       5.104       4.949       4.802       4.680       4.549       4.296       3.929    
        3.574       3.278       2.932       2.520       1.885       1.248      0.9142      0.5666      0.2161       0.000    
  10    10.00       9.974       9.944       9.894       9.799       9.667       9.524       9.430       9.329       9.180    
        9.042       8.884       8.728       8.547       8.364       8.219       8.052       7.862       7.640       7.426    
        7.205       6.914       6.668       6.464       6.283       6.134       5.961       5.817       5.722       5.631    
        5.504       5.361       5.241       5.105       4.967       4.865       4.741       4.588       4.297       3.931    
        3.651       3.389       2.990       2.368       1.634       1.172      0.8300      0.5067      0.2527       0.000    
  11    10.00       9.974       9.935       9.857       9.750       9.604       9.478       9.399       9.280       9.153    
        9.021       8.856       8.670       8.478       8.325       8.171       8.017       7.814       7.600       7.389    
        7.085       6.804       6.604       6.418       6.243       6.080       5.918       5.802       5.719       5.630    
        5.488       5.351       5.248       5.125       5.007       4.892       4.752       4.585       4.311       4.015    
        3.718       3.376       2.942       2.256       1.568       1.102      0.7781      0.5901      0.3259       0.000    
  12    10.00       9.973       9.917       9.817       9.679       9.534       9.435       9.356       9.253       9.139    
        8.995       8.821       8.636       8.464       8.308       8.139       7.963       7.759       7.544       7.264    
        6.965       6.750       6.554       6.365       6.174       6.010       5.893       5.801       5.698       5.588    
        5.462       5.355       5.262       5.162       5.056       4.939       4.786       4.580       4.324       4.055    
        3.736       3.363       2.768       1.998       1.414       1.086      0.8643      0.6264      0.3570       0.000    
  13    10.00       9.963       9.878       9.742       9.598       9.475       9.395       9.326       9.239       9.129    
        8.980       8.799       8.629       8.492       8.312       8.105       7.900       7.680       7.442       7.172    
        6.910       6.678       6.468       6.274       6.091       5.969       5.886       5.767       5.635       5.537    
        5.452       5.364       5.280       5.192       5.092       4.987       4.845       4.608       4.342       4.023    
        3.655       3.186       2.498       1.874       1.449       1.168      0.9089      0.6280      0.3102       0.000    
  14    10.00       9.934       9.811       9.662       9.530       9.433       9.380       9.318       9.234       9.116    
        8.951       8.798       8.658       8.515       8.316       8.073       7.854       7.605       7.340       7.061    
        6.807       6.577       6.367       6.177       6.030       5.945       5.848       5.706       5.592       5.514    
        5.449       5.367       5.293       5.209       5.117       5.031       4.865       4.621       4.337       3.940    
        3.507       2.955       2.425       1.968       1.543       1.214      0.9251      0.6287      0.2799       0.000    
  15    10.00       9.877       9.741       9.609       9.503       9.429       9.371       9.313       9.231       9.122    
        8.977       8.828       8.692       8.495       8.266       8.035       7.789       7.532       7.219       6.919    
        6.683       6.461       6.262       6.111       5.997       5.905       5.793       5.657       5.562       5.502    
        5.433       5.363       5.303       5.225       5.136       5.043       4.869       4.634       4.278       3.848    
        3.399       2.900       2.469       1.996       1.637       1.286      0.9365      0.6226      0.2553       0.000    
  16    10.00       9.857       9.711       9.590       9.500       9.432       9.373       9.319       9.240       9.128    
        8.993       8.852       8.688       8.445       8.197       8.007       7.768       7.424       7.066       6.784    
        6.537       6.347       6.186       6.054       5.930       5.844       5.722       5.609       5.531       5.465    
        5.411       5.362       5.296       5.225       5.146       5.039       4.878       4.595       4.206       3.812    
        3.425       2.941       2.453       2.035       1.697       1.327      0.9334      0.5577      0.2099       0.000    
  17    10.00       9.839       9.692       9.596       9.515       9.447       9.389       9.328       9.244       9.140    
        9.015       8.841       8.621       8.361       8.153       7.974       7.689       7.306       6.938       6.663    
        6.459       6.247       6.067       5.933       5.828       5.724       5.615       5.539       5.472       5.426    
        5.398       5.351       5.282       5.210       5.129       5.016       4.826       4.580       4.260       3.842    
        3.396       2.885       2.433       2.063       1.716       1.337      0.9530      0.5809      0.2455       0.000    
  18    10.00       9.830       9.693       9.609       9.537       9.472       9.414       9.341       9.258       9.147    
        9.000       8.796       8.553       8.333       8.129       7.872       7.542       7.194       6.868       6.596    
        6.346       6.074       5.915       5.802       5.710       5.594       5.520       5.455       5.410       5.395    
        5.372       5.329       5.259       5.178       5.094       4.971       4.785       4.581       4.302       3.913    
        3.331       2.786       2.417       2.064       1.769       1.371      0.9471      0.5692      0.2451       0.000    
  19    10.00       9.838       9.723       9.638       9.561       9.495       9.427       9.360       9.284       9.156    
        8.984       8.767       8.527       8.284       8.018       7.741       7.434       7.096       6.769       6.479    
        6.190       5.946       5.817       5.726       5.601       5.496       5.433       5.376       5.359       5.348    
        5.335       5.298       5.219       5.138       5.064       4.965       4.785       4.559       4.275       3.819    
        3.234       2.770       2.401       2.055       1.724       1.313      0.9091      0.5654      0.2664       0.000    
  20    10.00       9.847       9.750       9.675       9.600       9.523       9.442       9.370       9.294       9.164    
        8.978       8.754       8.475       8.161       7.857       7.630       7.321       6.956       6.666       6.376    
        6.116       5.912       5.755       5.620       5.463       5.388       5.343       5.311       5.308       5.302    
        5.294       5.249       5.175       5.118       5.047       4.942       4.736       4.506       4.181       3.671    
        3.167       2.795       2.369       1.975       1.615       1.211      0.9115      0.5613      0.2488       0.000    
  21    10.00       9.869       9.782       9.706       9.625       9.551       9.463       9.384       9.301       9.157    
        8.957       8.686       8.342       7.975       7.690       7.480       7.189       6.919       6.645       6.332    
        6.082       5.858       5.662       5.411       5.279       5.239       5.181       5.208       5.235       5.230    
        5.220       5.179       5.140       5.097       5.029       4.879       4.671       4.467       3.997       3.468    
        3.094       2.695       2.262       1.896       1.515       1.162      0.8251      0.4944      0.2483       0.000    
  22    10.00       9.898       9.806       9.724       9.645       9.575       9.475       9.374       9.278       9.130    
        8.888       8.549       8.161       7.816       7.569       7.349       7.124       6.928       6.629       6.321    
        6.060       5.743       5.395       5.128       5.027       4.931       4.941       5.036       5.075       5.095    
        5.108       5.095       5.090       5.071       5.001       4.835       4.616       4.246       3.716       3.380    
        2.979       2.551       2.163       1.812       1.488       1.070      0.7158      0.4740      0.2664       0.000    
  23    10.00       9.899       9.811       9.736       9.654       9.562       9.449       9.357       9.274       9.088    
        8.792       8.428       8.074       7.772       7.519       7.332       7.119       6.863       6.576       6.330    
        5.969       5.504       5.129       4.855       4.457       4.459       4.669       4.792       4.880       4.960    
        4.995       5.016       5.034       5.029       4.955       4.779       4.456       4.027       3.595       3.187    
        2.808       2.456       2.084       1.806       1.397      0.9722      0.6962      0.4557      0.2366       0.000    
  24    10.00       9.921       9.821       9.724       9.628       9.523       9.421       9.343       9.250       9.031    
        8.694       8.351       8.058       7.795       7.554       7.310       7.049       6.815       6.587       6.299    
        5.867       5.405       4.959       4.140       3.261       3.777       4.272       4.561       4.719       4.848    
        4.914       4.952       4.982       4.963       4.883       4.660       4.299       3.940       3.462       3.029    
        2.733       2.395       2.043       1.688       1.249      0.9020      0.6697      0.4269      0.1883       0.000    
  25    10.00       9.914       9.798       9.679       9.568       9.472       9.395       9.317       9.201       8.975    
        8.621       8.301       8.077       7.833       7.555       7.302       7.057       6.854       6.643       6.275    
        5.779       5.323       4.610       3.274      0.4710       3.180       3.962       4.416       4.653       4.787    
        4.864       4.912       4.933       4.899       4.805       4.565       4.181       3.766       3.379       3.006    
        2.668       2.301       1.901       1.528       1.111      0.8284      0.6671      0.4151      0.1538       0.000    
  26    10.00       9.892       9.744       9.610       9.521       9.443       9.367       9.271       9.134       8.853    
        8.524       8.300       8.086       7.843       7.583       7.340       7.112       6.912       6.649       6.258    
        5.822       5.319       4.697       3.978       3.315       3.670       4.136       4.455       4.648       4.770    
        4.842       4.888       4.889       4.841       4.721       4.446       4.031       3.696       3.381       2.978    
        2.624       2.209       1.751       1.350       1.011      0.8110      0.6312      0.3701      0.1575       0.000    
  27    10.00       9.869       9.710       9.586       9.510       9.409       9.308       9.187       9.003       8.736    
        8.502       8.304       8.085       7.848       7.593       7.401       7.246       6.979       6.647       6.249    
        5.877       5.516       5.020       4.552       4.181       4.243       4.422       4.577       4.698       4.782    
        4.853       4.882       4.867       4.794       4.640       4.335       4.008       3.712       3.347       2.968    
        2.601       2.100       1.577       1.202      0.9650      0.7980      0.6004      0.3913      0.1887       0.000    
  28    10.00       9.851       9.735       9.595       9.466       9.343       9.231       9.087       8.904       8.696    
        8.503       8.325       8.107       7.842       7.616       7.463       7.291       6.994       6.607       6.254    
        5.995       5.728       5.344       4.983       4.752       4.676       4.672       4.718       4.791       4.853    
        4.889       4.888       4.853       4.754       4.561       4.289       4.031       3.686       3.308       2.928    
        2.482       2.012       1.492       1.120      0.9545      0.7949      0.6191      0.4088      0.1895       0.000    
  29    10.00       9.856       9.712       9.563       9.409       9.289       9.163       9.003       8.848       8.683    
        8.510       8.332       8.119       7.894       7.703       7.523       7.292       6.959       6.607       6.334    
        6.117       5.886       5.574       5.256       5.067       4.963       4.897       4.889       4.915       4.925    
        4.917       4.892       4.836       4.711       4.498       4.271       4.036       3.717       3.297       2.818    
        2.412       1.912       1.395       1.103      0.9576      0.8006      0.6144      0.3994      0.1985       0.000    
  30    10.00       9.835       9.689       9.511       9.354       9.244       9.109       8.968       8.847       8.698    
        8.520       8.327       8.131       7.952       7.781       7.577       7.280       6.970       6.692       6.438    
        6.254       6.028       5.746       5.472       5.244       5.147       5.080       5.044       5.012       4.978    
        4.939       4.896       4.818       4.662       4.474       4.299       4.065       3.655       3.142       2.659    
        2.252       1.797       1.404       1.133      0.9796      0.8025      0.6036      0.4187      0.2053       0.000    
  31    10.00       9.813       9.644       9.474       9.332       9.218       9.089       8.964       8.844       8.696    
        8.519       8.322       8.152       8.003       7.840       7.608       7.314       7.050       6.835       6.614    
        6.420       6.168       5.891       5.660       5.427       5.269       5.195       5.126       5.073       5.014    
        4.961       4.895       4.792       4.645       4.470       4.278       3.913       3.463       3.041       2.574    
        2.191       1.738       1.357       1.162      0.9979      0.8312      0.6242      0.4192      0.1986       0.000    
  32    10.00       9.798       9.617       9.471       9.351       9.237       9.102       8.959       8.812       8.672    
        8.494       8.324       8.171       8.005       7.850       7.651       7.426       7.231       7.012       6.785    
        6.591       6.354       6.077       5.833       5.589       5.367       5.272       5.187       5.112       5.028    
        4.958       4.898       4.765       4.592       4.433       4.171       3.728       3.311       2.945       2.522    
        2.077       1.657       1.379       1.229       1.049      0.8386      0.6196      0.3983      0.1986       0.000    
  33    10.00       9.792       9.636       9.519       9.399       9.265       9.102       8.941       8.782       8.622    
        8.473       8.329       8.178       8.018       7.847       7.693       7.528       7.362       7.183       6.961    
        6.733       6.511       6.282       5.998       5.699       5.449       5.314       5.226       5.131       5.030    
        4.954       4.864       4.721       4.563       4.337       3.982       3.537       3.191       2.843       2.354    
        1.953       1.681       1.460       1.282       1.077      0.8552      0.5869      0.3505      0.1579       0.000    
  34    10.00       9.810       9.682       9.572       9.438       9.273       9.100       8.911       8.735       8.600    
        8.467       8.335       8.199       8.033       7.881       7.732       7.589       7.457       7.284       7.056    
        6.841       6.642       6.415       6.118       5.789       5.509       5.340       5.234       5.132       5.020    
        4.924       4.823       4.688       4.490       4.217       3.784       3.358       3.056       2.648       2.222    
        1.978       1.799       1.586       1.357       1.087      0.7755      0.4742      0.2806      0.1163       0.000    
  35    10.00       9.841       9.726       9.613       9.469       9.283       9.085       8.874       8.706       8.590    
        8.502       8.368       8.215       8.038       7.876       7.769       7.665       7.527       7.346       7.130    
        6.925       6.728       6.517       6.177       5.802       5.534       5.351       5.235       5.119       4.992    
        4.898       4.784       4.626       4.364       3.939       3.497       3.221       2.914       2.504       2.251    
        2.082       1.879       1.665       1.442       1.100      0.6593      0.3641      0.2392      0.1214       0.000    
  36    10.00       9.860       9.759       9.651       9.497       9.275       9.031       8.833       8.714       8.625    
        8.503       8.349       8.206       8.049       7.907       7.801       7.700       7.576       7.432       7.230    
        7.017       6.811       6.544       6.172       5.805       5.536       5.364       5.226       5.077       4.959    
        4.848       4.706       4.448       4.057       3.675       3.382       3.129       2.811       2.490       2.326    
        2.154       1.972       1.756       1.467       1.003      0.5549      0.3418      0.2187      0.1123       0.000    
  37    10.00       9.874       9.796       9.679       9.473       9.229       9.014       8.860       8.761       8.653    
        8.493       8.328       8.204       8.068       7.934       7.832       7.737       7.621       7.468       7.289    
        7.115       6.885       6.545       6.190       5.836       5.532       5.321       5.146       5.007       4.889    
        4.758       4.542       4.156       3.811       3.555       3.306       3.051       2.804       2.579       2.395    
        2.231       2.027       1.781       1.402      0.9184      0.5345      0.3199      0.2033      0.1019       0.000    
  38    10.00       9.892       9.798       9.669       9.455       9.203       9.021       8.906       8.803       8.673    
        8.503       8.330       8.208       8.082       7.948       7.844       7.760       7.658       7.504       7.350    
        7.186       6.910       6.517       6.129       5.768       5.466       5.232       5.038       4.906       4.794    
        4.625       4.266       3.937       3.732       3.484       3.242       3.061       2.858       2.653       2.478    
        2.285       2.007       1.696       1.285      0.8059      0.5117      0.3598      0.2242      0.1006       0.000    
  39    10.00       9.891       9.783       9.648       9.441       9.213       9.048       8.945       8.816       8.672    
        8.534       8.359       8.220       8.098       7.968       7.857       7.761       7.658       7.533       7.392    
        7.191       6.885       6.466       6.028       5.656       5.372       5.103       4.902       4.810       4.695    
        4.415       4.065       3.875       3.644       3.417       3.250       3.104       2.920       2.723       2.560    
        2.280       1.887       1.523       1.080      0.7182      0.5540      0.4123      0.2684      0.1381       0.000    
  40    10.00       9.882       9.787       9.648       9.458       9.265       9.104       8.967       8.814       8.682    
        8.577       8.404       8.227       8.103       7.983       7.855       7.747       7.666       7.555       7.374    
        7.133       6.775       6.347       5.933       5.559       5.259       4.947       4.794       4.711       4.555    
        4.304       4.060       3.805       3.573       3.418       3.277       3.139       2.968       2.788       2.574    
        2.196       1.769       1.375       1.018      0.7702      0.6012      0.4600      0.3246      0.1594       0.000    
  41    10.00       9.897       9.821       9.686       9.489       9.288       9.133       9.009       8.858       8.701    
        8.575       8.413       8.248       8.131       7.990       7.836       7.745       7.654       7.501       7.296    
        7.044       6.689       6.258       5.857       5.483       5.077       4.795       4.718       4.623       4.510    
        4.319       4.025       3.774       3.594       3.443       3.320       3.169       3.007       2.821       2.487    
        2.046       1.631       1.290       1.027      0.8130      0.6562      0.5054      0.3570      0.1879       0.000    
  42    10.00       9.923       9.838       9.708       9.537       9.344       9.167       9.039       8.901       8.724    
        8.561       8.407       8.264       8.151       8.000       7.839       7.726       7.599       7.430       7.194    
        6.900       6.510       6.132       5.730       5.240       4.889       4.752       4.689       4.610       4.492    
        4.268       4.013       3.782       3.603       3.483       3.353       3.220       3.045       2.748       2.306    
        1.922       1.614       1.319       1.022      0.8231      0.6898      0.5452      0.3715      0.2061       0.000    
  43    10.00       9.939       9.847       9.712       9.542       9.381       9.224       9.079       8.905       8.720    
        8.570       8.413       8.271       8.165       8.021       7.835       7.683       7.537       7.306       7.005    
        6.721       6.347       6.001       5.537       5.078       4.854       4.748       4.676       4.603       4.478    
        4.266       4.036       3.816       3.644       3.530       3.401       3.227       2.977       2.543       2.153    
        1.915       1.643       1.332       1.024      0.8145      0.6913      0.5799      0.4017      0.1882       0.000    
  44    10.00       9.931       9.853       9.711       9.556       9.439       9.279       9.079       8.882       8.727    
        8.575       8.416       8.291       8.178       8.007       7.804       7.627       7.452       7.180       6.885    
        6.547       6.178       5.810       5.350       5.010       4.845       4.755       4.694       4.613       4.455    
        4.242       4.058       3.866       3.708       3.591       3.411       3.180       2.823       2.385       2.129    
        1.911       1.628       1.318       1.038      0.8239      0.6930      0.5801      0.3933      0.1733       0.000    
  45    10.00       9.917       9.822       9.707       9.594       9.442       9.271       9.079       8.883       8.726    
        8.567       8.422       8.311       8.180       7.990       7.770       7.573       7.375       7.082       6.737    
        6.352       5.964       5.571       5.236       5.003       4.865       4.778       4.712       4.608       4.480    
        4.296       4.089       3.917       3.753       3.584       3.395       3.143       2.764       2.386       2.089    
        1.841       1.575       1.286       1.035      0.8493      0.7409      0.5725      0.3407      0.1553       0.000    
  46    10.00       9.899       9.800       9.709       9.579       9.404       9.237       9.079       8.885       8.716    
        8.575       8.440       8.327       8.167       7.965       7.768       7.558       7.300       6.984       6.611    
        6.162       5.779       5.468       5.216       5.039       4.917       4.808       4.718       4.636       4.494    
        4.298       4.118       3.949       3.759       3.592       3.414       3.130       2.694       2.299       2.035    
        1.803       1.548       1.277       1.058      0.9141      0.7745      0.5189      0.2551      0.1109       0.000    
  47    10.00       9.892       9.792       9.665       9.513       9.369       9.225       9.055       8.876       8.726    
        8.596       8.475       8.314       8.140       7.957       7.766       7.532       7.233       6.940       6.487    
        6.002       5.706       5.439       5.242       5.078       4.957       4.846       4.738       4.643       4.496    
        4.290       4.112       3.940       3.762       3.619       3.403       3.010       2.620       2.291       2.010    
        1.807       1.566       1.326       1.114      0.9359      0.7103      0.4267      0.2230      9.2885E-02   0.000    
  48    10.00       9.880       9.759       9.623       9.485       9.358       9.212       9.055       8.891       8.742    
        8.610       8.467       8.289       8.110       7.931       7.740       7.516       7.235       6.871       6.423    
        6.006       5.702       5.443       5.262       5.128       4.978       4.866       4.775       4.658       4.457    
        4.255       4.081       3.925       3.793       3.604       3.320       2.947       2.597       2.285       2.038    
        1.820       1.591       1.374       1.135      0.8676      0.5769      0.3646      0.2162      9.7695E-02   0.000    
  49    10.00       9.869       9.737       9.604       9.491       9.359       9.204       9.051       8.917       8.763    
        8.604       8.423       8.248       8.098       7.894       7.708       7.522       7.206       6.847       6.491    
        6.052       5.713       5.455       5.297       5.138       4.977       4.890       4.802       4.612       4.370    
        4.199       4.060       3.947       3.776       3.556       3.303       2.931       2.582       2.338       2.075    
        1.818       1.608       1.377       1.096      0.7679      0.5142      0.3646      0.2353      0.1207       0.000    
  50    10.00       9.874       9.742       9.606       9.483       9.353       9.216       9.064       8.924       8.786    
        8.590       8.402       8.241       8.039       7.833       7.690       7.513       7.268       6.913       6.561    
        6.112       5.686       5.462       5.301       5.135       5.004       4.899       4.780       4.555       4.327    
        4.185       4.071       3.939       3.761       3.558       3.317       2.940       2.583       2.346       2.109    
        1.865       1.600       1.340       1.039      0.7159      0.5262      0.3923      0.2659      0.1604       0.000    

 HEAD WILL BE SAVED ON UNIT   51 AT END OF TIME STEP  27, STRESS PERIOD    2

 DRAWDOWN WILL BE SAVED ON UNIT   52 AT END OF TIME STEP  27, STRESS PERIOD    2
1
  VOLUMETRIC BUDGET FOR ENTIRE MODEL AT END OF TIME STEP 27 IN STRESS PERIOD   2
  ------------------------------------------------------------------------------

     CUMULATIVE VOLUMES      L**3       RATES FOR THIS TIME STEP      L**3/T
     ------------------                 ------------------------

           IN:                                      IN:
           ---                                      ---
             STORAGE =       13487.4463               STORAGE =         497.7297
       CONSTANT HEAD =       10441.1396         CONSTANT HEAD =         374.6619
               WELLS =           0.0000                 WELLS =           0.0000

            TOTAL IN =       23928.5859              TOTAL IN =         872.3916

          OUT:                                     OUT:
          ----                                     ----
             STORAGE =       1.1143E-02               STORAGE =           0.0000
       CONSTANT HEAD =       10428.5732         CONSTANT HEAD =         372.3921
               WELLS =       13500.0000                 WELLS =         500.0000

           TOTAL OUT =       23928.5840             TOTAL OUT =         872.3921

            IN - OUT =       1.9531E-03              IN - OUT =      -4.8828E-04

 PERCENT DISCREPANCY =           0.00     PERCENT DISCREPANCY =           0.00






          TIME SUMMARY AT END OF TIME STEP  27 IN STRESS PERIOD    2
                    SECONDS     MINUTES      HOURS       DAYS        YEARS
                    -----------------------------------------------------------
   TIME STEP LENGTH  86400.      1440.0      24.000      1.0000     2.73785E-03
 STRESS PERIOD TIME 2.33280E+06  38880.      648.00      27.000     7.39220E-02
         TOTAL TIME 2.41920E+06  40320.      672.00      28.000     7.66598E-02
1
 
 SOLVING FOR HEAD 

 OUTPUT CONTROL FOR STRESS PERIOD    2   TIME STEP  28
    SAVE HEAD FOR ALL LAYERS
    SAVE DRAWDOWN FOR ALL LAYERS
    SAVE BUDGET
    PRINT HEAD FOR ALL LAYERS
    PRINT BUDGET
 UBDSV1 SAVING "         STORAGE" ON UNIT  53 AT TIME STEP 28, STRESS PERIOD   2
 UBDSV2 SAVING "   CONSTANT HEAD" ON UNIT  53 AT TIME STEP 28, STRESS PERIOD   2
 UBDSV1 SAVING "FLOW RIGHT FACE " ON UNIT  53 AT TIME STEP 28, STRESS PERIOD   2
 UBDSV1 SAVING "FLOW FRONT FACE " ON UNIT  53 AT TIME STEP 28, STRESS PERIOD   2
1
              HEAD IN LAYER   1 AT END OF TIME STEP  28 IN STRESS PERIOD    2
  ---------------------------------------------------------------------------

            1           2           3           4           5           6           7           8           9          10
           11          12          13          14          15          16          17          18          19          20
           21          22          23          24          25          26          27          28          29          30
           31          32          33          34          35          36          37          38          39          40
           41          42          43          44          45          46          47          48          49          50
 ........................................................................................................................
   1    10.00       9.953       9.906       9.851       9.808       9.771       9.722       9.654       9.580       9.512    
        9.362       9.173       9.034       8.879       8.714       8.547       8.392       8.214       7.976       7.739    
        7.577       7.392       7.148       6.901       6.680       6.487       6.213       5.963       5.786       5.600    
        5.438       5.332       5.216       5.083       4.955       4.796       4.625       4.394       4.131       3.843    
        3.473       3.098       2.606       2.071       1.670       1.381       1.165      0.9187      0.5393       0.000    
   2    10.00       9.948       9.898       9.851       9.815       9.779       9.725       9.655       9.588       9.496    
        9.349       9.180       9.024       8.883       8.730       8.558       8.375       8.191       7.969       7.731    
        7.554       7.403       7.143       6.876       6.679       6.462       6.197       5.958       5.756       5.580    
        5.443       5.345       5.246       5.103       4.954       4.796       4.600       4.385       4.129       3.801    
        3.455       3.135       2.619       2.088       1.731       1.473       1.225      0.9489      0.5727       0.000    
   3    10.00       9.940       9.898       9.866       9.830       9.794       9.735       9.653       9.570       9.471    
        9.337       9.188       9.037       8.895       8.714       8.499       8.320       8.162       7.958       7.749    
        7.568       7.352       7.097       6.862       6.649       6.406       6.154       5.919       5.710       5.578    
        5.463       5.368       5.268       5.111       4.954       4.787       4.593       4.353       4.068       3.816    
        3.508       3.072       2.568       2.186       1.882       1.582       1.275      0.9617      0.5427       0.000    
   4    10.00       9.940       9.903       9.874       9.850       9.810       9.743       9.648       9.551       9.452    
        9.325       9.191       9.041       8.862       8.641       8.442       8.314       8.135       7.939       7.775    
        7.529       7.258       7.034       6.825       6.619       6.330       6.052       5.865       5.719       5.604    
        5.499       5.399       5.291       5.110       4.916       4.765       4.561       4.312       4.067       3.845    
        3.495       3.014       2.633       2.310       1.983       1.642       1.272      0.9055      0.4638       0.000    
   5    10.00       9.945       9.911       9.882       9.860       9.820       9.749       9.641       9.533       9.433    
        9.325       9.188       8.996       8.788       8.601       8.443       8.285       8.119       7.935       7.706    
        7.423       7.199       7.012       6.801       6.539       6.241       6.011       5.875       5.755       5.639    
        5.520       5.397       5.275       5.101       4.904       4.721       4.537       4.340       4.115       3.821    
        3.425       3.057       2.729       2.403       2.045       1.647       1.184      0.7628      0.3949       0.000    
   6    10.00       9.954       9.921       9.893       9.863       9.818       9.743       9.627       9.532       9.426    
        9.306       9.137       8.927       8.755       8.583       8.404       8.243       8.096       7.890       7.633    
        7.382       7.167       6.978       6.719       6.435       6.208       6.020       5.892       5.762       5.642    
        5.536       5.401       5.247       5.069       4.877       4.720       4.558       4.378       4.140       3.823    
        3.474       3.116       2.781       2.451       2.063       1.581       1.082      0.7176      0.3693       0.000    
   7    10.00       9.960       9.931       9.902       9.869       9.816       9.715       9.604       9.506       9.376    
        9.253       9.074       8.885       8.708       8.532       8.353       8.196       8.062       7.829       7.554    
        7.329       7.114       6.903       6.651       6.409       6.200       6.035       5.887       5.748       5.651    
        5.542       5.396       5.232       5.049       4.882       4.741       4.592       4.404       4.159       3.868    
        3.520       3.151       2.802       2.437       2.054       1.548       1.035      0.6836      0.3235       0.000    
   8    10.00       9.967       9.941       9.909       9.872       9.787       9.664       9.559       9.437       9.313    
        9.179       8.996       8.837       8.658       8.463       8.290       8.154       7.996       7.778       7.513    
        7.253       7.055       6.880       6.624       6.375       6.188       6.002       5.844       5.746       5.653    
        5.525       5.379       5.239       5.074       4.896       4.748       4.633       4.488       4.245       3.907    
        3.524       3.195       2.868       2.442       2.014       1.450      0.9594      0.6698      0.3099       0.000    
   9    10.00       9.974       9.945       9.909       9.846       9.735       9.606       9.484       9.377       9.250    
        9.092       8.930       8.773       8.603       8.403       8.241       8.115       7.930       7.717       7.451    
        7.224       7.028       6.787       6.529       6.319       6.153       5.964       5.827       5.730       5.626    
        5.509       5.376       5.243       5.098       4.944       4.798       4.677       4.546       4.293       3.927    
        3.573       3.277       2.931       2.519       1.885       1.248      0.9141      0.5665      0.2161       0.000    
  10    10.00       9.974       9.944       9.894       9.799       9.667       9.524       9.429       9.328       9.180    
        9.041       8.883       8.726       8.545       8.362       8.216       8.049       7.859       7.636       7.421    
        7.200       6.907       6.661       6.456       6.275       6.126       5.953       5.809       5.714       5.623    
        5.497       5.354       5.234       5.099       4.962       4.859       4.736       4.584       4.294       3.929    
        3.649       3.388       2.989       2.368       1.634       1.172      0.8299      0.5067      0.2527       0.000    
  11    10.00       9.974       9.935       9.857       9.750       9.603       9.477       9.398       9.279       9.152    
        9.020       8.855       8.668       8.475       8.322       8.168       8.014       7.810       7.595       7.384    
        7.078       6.796       6.595       6.409       6.234       6.070       5.908       5.792       5.710       5.621    
        5.479       5.343       5.240       5.117       5.001       4.886       4.747       4.581       4.308       4.013    
        3.716       3.375       2.941       2.256       1.568       1.102      0.7781      0.5901      0.3259       0.000    
  12    10.00       9.973       9.917       9.817       9.678       9.534       9.434       9.355       9.252       9.138    
        8.994       8.819       8.634       8.462       8.305       8.136       7.959       7.754       7.538       7.257    
        6.957       6.741       6.544       6.355       6.163       5.999       5.882       5.790       5.687       5.578    
        5.452       5.345       5.253       5.153       5.048       4.933       4.780       4.576       4.321       4.052    
        3.734       3.361       2.767       1.998       1.414       1.086      0.8642      0.6263      0.3569       0.000    
  13    10.00       9.963       9.877       9.742       9.598       9.474       9.394       9.325       9.238       9.128    
        8.978       8.797       8.627       8.489       8.309       8.101       7.896       7.674       7.435       7.163    
        6.900       6.668       6.456       6.262       6.079       5.956       5.874       5.755       5.624       5.526    
        5.441       5.354       5.270       5.183       5.083       4.979       4.839       4.603       4.338       4.020    
        3.653       3.184       2.497       1.874       1.448       1.168      0.9088      0.6280      0.3102       0.000    
  14    10.00       9.934       9.811       9.662       9.529       9.433       9.379       9.317       9.233       9.115    
        8.950       8.796       8.655       8.512       8.312       8.068       7.848       7.598       7.332       7.051    
        6.796       6.565       6.354       6.163       6.016       5.931       5.835       5.693       5.579       5.501    
        5.437       5.356       5.282       5.199       5.108       5.022       4.858       4.616       4.333       3.937    
        3.505       2.954       2.424       1.967       1.542       1.213      0.9250      0.6286      0.2799       0.000    
  15    10.00       9.877       9.741       9.609       9.503       9.429       9.370       9.312       9.230       9.120    
        8.975       8.825       8.689       8.491       8.261       8.029       7.783       7.524       7.209       6.907    
        6.670       6.447       6.247       6.096       5.982       5.890       5.778       5.643       5.548       5.489    
        5.420       5.351       5.292       5.214       5.126       5.034       4.861       4.628       4.274       3.845    
        3.397       2.899       2.468       1.995       1.637       1.285      0.9364      0.6225      0.2552       0.000    
  16    10.00       9.857       9.710       9.590       9.499       9.432       9.372       9.318       9.239       9.126    
        8.991       8.849       8.685       8.440       8.191       8.000       7.759       7.414       7.054       6.770    
        6.521       6.331       6.169       6.037       5.913       5.827       5.706       5.593       5.516       5.450    
        5.397       5.348       5.283       5.214       5.135       5.029       4.870       4.589       4.201       3.809    
        3.423       2.940       2.453       2.035       1.697       1.327      0.9333      0.5577      0.2098       0.000    
  17    10.00       9.838       9.692       9.595       9.514       9.446       9.388       9.327       9.242       9.138    
        9.013       8.838       8.616       8.355       8.146       7.966       7.679       7.294       6.924       6.647    
        6.442       6.229       6.049       5.914       5.810       5.705       5.597       5.521       5.456       5.411    
        5.383       5.337       5.269       5.197       5.118       5.005       4.817       4.572       4.255       3.838    
        3.394       2.883       2.432       2.062       1.716       1.337      0.9530      0.5809      0.2455       0.000    
  18    10.00       9.830       9.692       9.609       9.536       9.471       9.413       9.340       9.257       9.145    
        8.997       8.793       8.548       8.327       8.122       7.862       7.530       7.179       6.852       6.578    
        6.328       6.054       5.895       5.782       5.690       5.574       5.501       5.436       5.392       5.377    
        5.356       5.314       5.245       5.165       5.081       4.960       4.776       4.573       4.296       3.909    
        3.329       2.785       2.416       2.064       1.769       1.371      0.9471      0.5692      0.2451       0.000    
  19    10.00       9.838       9.723       9.637       9.560       9.494       9.426       9.359       9.282       9.154    
        8.981       8.763       8.521       8.277       8.009       7.729       7.420       7.080       6.751       6.460    
        6.169       5.925       5.796       5.705       5.580       5.475       5.413       5.356       5.339       5.329    
        5.317       5.281       5.204       5.125       5.051       4.954       4.776       4.551       4.269       3.815    
        3.232       2.769       2.401       2.055       1.724       1.313      0.9091      0.5654      0.2664       0.000    
  20    10.00       9.847       9.749       9.674       9.599       9.522       9.441       9.369       9.292       9.162    
        8.975       8.750       8.469       8.153       7.847       7.618       7.306       6.939       6.647       6.356    
        6.095       5.890       5.733       5.598       5.441       5.366       5.322       5.290       5.287       5.282    
        5.275       5.231       5.159       5.103       5.034       4.930       4.727       4.498       4.176       3.668    
        3.165       2.794       2.369       1.975       1.615       1.211      0.9115      0.5613      0.2488       0.000    
  21    10.00       9.869       9.782       9.706       9.624       9.550       9.462       9.383       9.300       9.155    
        8.954       8.681       8.334       7.965       7.677       7.466       7.172       6.901       6.626       6.311    
        6.060       5.836       5.640       5.388       5.256       5.216       5.158       5.186       5.213       5.209    
        5.200       5.159       5.122       5.081       5.015       4.867       4.661       4.460       3.992       3.466    
        3.093       2.694       2.261       1.896       1.515       1.162      0.8250      0.4944      0.2483       0.000    
  22    10.00       9.897       9.806       9.723       9.644       9.575       9.474       9.373       9.277       9.128    
        8.884       8.543       8.152       7.804       7.555       7.333       7.107       6.910       6.609       6.300    
        6.038       5.720       5.371       5.103       5.003       4.907       4.917       5.013       5.052       5.072    
        5.086       5.073       5.070       5.053       4.986       4.823       4.607       4.240       3.713       3.378    
        2.978       2.550       2.163       1.812       1.488       1.070      0.7158      0.4740      0.2664       0.000    
  23    10.00       9.899       9.810       9.736       9.653       9.561       9.448       9.356       9.272       9.085    
        8.787       8.421       8.064       7.759       7.504       7.316       7.102       6.844       6.555       6.309    
        5.946       5.479       5.104       4.830       4.432       4.433       4.644       4.767       4.855       4.935    
        4.971       4.993       5.012       5.010       4.939       4.766       4.448       4.022       3.592       3.185    
        2.807       2.455       2.084       1.806       1.397      0.9722      0.6962      0.4557      0.2366       0.000    
  24    10.00       9.921       9.821       9.723       9.628       9.522       9.420       9.342       9.248       9.028    
        8.689       8.343       8.048       7.783       7.540       7.294       7.031       6.796       6.566       6.277    
        5.843       5.380       4.934       4.113       3.233       3.750       4.245       4.535       4.693       4.823    
        4.890       4.928       4.959       4.943       4.865       4.647       4.291       3.935       3.460       3.027    
        2.732       2.394       2.043       1.688       1.249      0.9019      0.6697      0.4269      0.1883       0.000    
  25    10.00       9.914       9.798       9.679       9.567       9.471       9.394       9.316       9.199       8.971    
        8.616       8.293       8.067       7.821       7.541       7.285       7.039       6.834       6.622       6.253    
        5.755       5.297       4.583       3.246      0.4415       3.152       3.934       4.389       4.627       4.762    
        4.839       4.887       4.910       4.878       4.787       4.552       4.174       3.762       3.376       3.005    
        2.667       2.300       1.901       1.528       1.111      0.8283      0.6671      0.4151      0.1538       0.000    
  26    10.00       9.892       9.743       9.610       9.520       9.442       9.366       9.269       9.132       8.849    
        8.518       8.293       8.076       7.831       7.569       7.324       7.094       6.893       6.628       6.235    
        5.797       5.294       4.670       3.950       3.287       3.642       4.109       4.428       4.621       4.744    
        4.817       4.863       4.866       4.821       4.703       4.434       4.023       3.691       3.377       2.977    
        2.623       2.208       1.751       1.350       1.011      0.8109      0.6311      0.3701      0.1575       0.000    
  27    10.00       9.868       9.710       9.585       9.509       9.408       9.307       9.185       9.000       8.731    
        8.497       8.297       8.076       7.837       7.579       7.386       7.230       6.961       6.627       6.227    
        5.854       5.492       4.994       4.525       4.153       4.215       4.394       4.550       4.671       4.757    
        4.828       4.859       4.845       4.774       4.624       4.323       3.999       3.706       3.343       2.966    
        2.600       2.100       1.576       1.201      0.9649      0.7979      0.6004      0.3913      0.1886       0.000    
  28    10.00       9.851       9.735       9.595       9.465       9.341       9.229       9.085       8.900       8.691    
        8.497       8.318       8.098       7.831       7.603       7.449       7.275       6.976       6.587       6.232    
        5.972       5.704       5.319       4.958       4.725       4.650       4.645       4.692       4.765       4.829    
        4.865       4.865       4.832       4.736       4.545       4.278       4.022       3.681       3.304       2.926    
        2.481       2.011       1.492       1.120      0.9544      0.7949      0.6190      0.4088      0.1895       0.000    
  29    10.00       9.856       9.711       9.563       9.407       9.288       9.161       9.000       8.845       8.678    
        8.505       8.326       8.111       7.884       7.691       7.510       7.276       6.941       6.587       6.313    
        6.095       5.862       5.549       5.231       5.042       4.937       4.871       4.864       4.891       4.902    
        4.894       4.871       4.816       4.693       4.484       4.260       4.027       3.711       3.294       2.816    
        2.411       1.912       1.395       1.103      0.9575      0.8006      0.6144      0.3993      0.1985       0.000    
  30    10.00       9.835       9.689       9.510       9.353       9.243       9.107       8.965       8.844       8.694    
        8.515       8.320       8.123       7.942       7.770       7.565       7.265       6.953       6.673       6.418    
        6.232       6.006       5.723       5.448       5.220       5.123       5.056       5.021       4.989       4.956    
        4.918       4.876       4.799       4.646       4.461       4.288       4.056       3.649       3.139       2.658    
        2.251       1.796       1.403       1.133      0.9795      0.8024      0.6036      0.4186      0.2053       0.000    
  31    10.00       9.813       9.644       9.473       9.331       9.216       9.087       8.962       8.841       8.693    
        8.514       8.316       8.145       7.994       7.830       7.596       7.301       7.034       6.818       6.595    
        6.400       6.147       5.868       5.637       5.404       5.246       5.173       5.104       5.052       4.993    
        4.941       4.876       4.775       4.630       4.457       4.267       3.905       3.459       3.039       2.573    
        2.190       1.738       1.357       1.162      0.9978      0.8311      0.6241      0.4192      0.1986       0.000    
  32    10.00       9.798       9.616       9.470       9.350       9.235       9.100       8.956       8.808       8.668    
        8.490       8.318       8.165       7.997       7.841       7.641       7.414       7.217       6.997       6.769    
        6.573       6.335       6.056       5.811       5.567       5.345       5.251       5.166       5.091       5.009    
        4.940       4.880       4.749       4.578       4.421       4.162       3.721       3.308       2.943       2.520    
        2.076       1.657       1.378       1.229       1.049      0.8385      0.6195      0.3983      0.1986       0.000    
  33    10.00       9.792       9.636       9.518       9.398       9.264       9.100       8.939       8.779       8.618    
        8.469       8.324       8.172       8.011       7.839       7.683       7.518       7.350       7.169       6.946    
        6.717       6.494       6.263       5.979       5.679       5.429       5.294       5.207       5.112       5.013    
        4.937       4.848       4.706       4.550       4.326       3.974       3.532       3.188       2.841       2.353    
        1.952       1.681       1.460       1.282       1.077      0.8551      0.5869      0.3504      0.1578       0.000    
  34    10.00       9.810       9.682       9.571       9.437       9.272       9.098       8.909       8.732       8.596    
        8.463       8.330       8.193       8.027       7.874       7.723       7.580       7.447       7.273       7.043    
        6.826       6.627       6.398       6.101       5.771       5.491       5.322       5.217       5.115       5.004    
        4.909       4.809       4.674       4.478       4.208       3.777       3.354       3.053       2.647       2.222    
        1.978       1.799       1.586       1.357       1.087      0.7755      0.4742      0.2806      0.1163       0.000    
  35    10.00       9.841       9.726       9.613       9.469       9.282       9.083       8.871       8.703       8.587    
        8.498       8.364       8.210       8.032       7.868       7.761       7.656       7.518       7.336       7.118    
        6.912       6.714       6.502       6.162       5.786       5.518       5.335       5.219       5.103       4.977    
        4.884       4.771       4.614       4.354       3.932       3.493       3.218       2.912       2.503       2.251    
        2.082       1.879       1.665       1.441       1.100      0.6593      0.3640      0.2392      0.1214       0.000    
  36    10.00       9.859       9.759       9.650       9.496       9.274       9.030       8.831       8.711       8.622    
        8.500       8.344       8.201       8.043       7.900       7.794       7.692       7.567       7.423       7.220    
        7.006       6.799       6.531       6.158       5.791       5.521       5.350       5.212       5.064       4.946    
        4.835       4.694       4.438       4.050       3.670       3.379       3.127       2.809       2.489       2.325    
        2.154       1.972       1.756       1.467       1.003      0.5548      0.3418      0.2187      0.1123       0.000    
  37    10.00       9.874       9.796       9.678       9.472       9.228       9.012       8.858       8.758       8.650    
        8.490       8.324       8.199       8.063       7.928       7.825       7.730       7.614       7.460       7.280    
        7.106       6.875       6.535       6.179       5.825       5.520       5.309       5.135       4.996       4.878    
        4.747       4.533       4.150       3.807       3.552       3.304       3.049       2.803       2.578       2.395    
        2.230       2.026       1.781       1.402      0.9183      0.5345      0.3199      0.2033      0.1019       0.000    
  38    10.00       9.892       9.798       9.669       9.455       9.202       9.019       8.905       8.801       8.671    
        8.500       8.326       8.204       8.077       7.943       7.839       7.754       7.652       7.497       7.342    
        7.178       6.902       6.509       6.121       5.759       5.457       5.223       5.030       4.898       4.785    
        4.616       4.260       3.932       3.728       3.481       3.240       3.060       2.857       2.652       2.477    
        2.284       2.007       1.696       1.285      0.8058      0.5116      0.3598      0.2241      0.1006       0.000    
  39    10.00       9.891       9.783       9.648       9.440       9.212       9.046       8.944       8.814       8.670    
        8.531       8.356       8.216       8.094       7.964       7.852       7.756       7.652       7.528       7.386    
        7.184       6.879       6.460       6.022       5.650       5.365       5.097       4.896       4.804       4.690    
        4.410       4.061       3.872       3.641       3.415       3.249       3.103       2.919       2.722       2.559    
        2.279       1.887       1.523       1.080      0.7181      0.5540      0.4123      0.2684      0.1381       0.000    
  40    10.00       9.882       9.787       9.648       9.457       9.265       9.103       8.966       8.812       8.680    
        8.575       8.402       8.224       8.100       7.979       7.850       7.743       7.661       7.550       7.369    
        7.129       6.771       6.343       5.929       5.555       5.255       4.943       4.790       4.707       4.551    
        4.301       4.057       3.803       3.571       3.416       3.276       3.138       2.967       2.787       2.573    
        2.195       1.769       1.375       1.018      0.7701      0.6011      0.4600      0.3246      0.1594       0.000    
  41    10.00       9.897       9.821       9.686       9.489       9.287       9.132       9.008       8.857       8.699    
        8.573       8.411       8.245       8.128       7.986       7.832       7.741       7.650       7.497       7.293    
        7.041       6.687       6.256       5.855       5.480       5.075       4.793       4.715       4.620       4.508    
        4.317       4.023       3.772       3.593       3.442       3.319       3.168       3.006       2.820       2.487    
        2.045       1.631       1.290       1.027      0.8130      0.6562      0.5054      0.3570      0.1879       0.000    
  42    10.00       9.923       9.838       9.708       9.537       9.343       9.166       9.038       8.900       8.723    
        8.560       8.405       8.262       8.149       7.998       7.836       7.723       7.596       7.427       7.191    
        6.898       6.508       6.131       5.729       5.238       4.887       4.750       4.687       4.608       4.490    
        4.266       4.011       3.781       3.602       3.482       3.352       3.219       3.044       2.747       2.306    
        1.922       1.614       1.319       1.022      0.8230      0.6898      0.5452      0.3715      0.2061       0.000    
  43    10.00       9.939       9.847       9.712       9.542       9.380       9.223       9.078       8.905       8.719    
        8.568       8.411       8.269       8.164       8.020       7.833       7.680       7.534       7.304       7.004    
        6.720       6.346       6.000       5.536       5.077       4.852       4.747       4.675       4.601       4.477    
        4.265       4.034       3.815       3.643       3.529       3.400       3.226       2.976       2.542       2.153    
        1.914       1.643       1.332       1.024      0.8144      0.6913      0.5799      0.4016      0.1882       0.000    
  44    10.00       9.931       9.853       9.711       9.556       9.439       9.278       9.079       8.881       8.726    
        8.575       8.415       8.290       8.177       8.006       7.803       7.626       7.451       7.179       6.884    
        6.546       6.177       5.809       5.349       5.009       4.844       4.753       4.692       4.612       4.454    
        4.241       4.057       3.865       3.707       3.590       3.411       3.179       2.822       2.385       2.129    
        1.911       1.627       1.318       1.038      0.8238      0.6929      0.5801      0.3933      0.1733       0.000    
  45    10.00       9.917       9.822       9.707       9.594       9.442       9.271       9.079       8.882       8.725    
        8.566       8.422       8.311       8.179       7.989       7.770       7.572       7.374       7.081       6.736    
        6.351       5.964       5.570       5.236       5.003       4.864       4.777       4.711       4.607       4.479    
        4.296       4.088       3.916       3.752       3.583       3.395       3.142       2.764       2.386       2.088    
        1.841       1.574       1.286       1.035      0.8493      0.7408      0.5724      0.3407      0.1553       0.000    
  46    10.00       9.899       9.800       9.709       9.579       9.404       9.237       9.079       8.884       8.716    
        8.575       8.440       8.327       8.167       7.964       7.767       7.557       7.299       6.984       6.611    
        6.162       5.779       5.468       5.215       5.039       4.916       4.807       4.717       4.635       4.493    
        4.297       4.117       3.948       3.758       3.591       3.414       3.130       2.694       2.299       2.035    
        1.803       1.548       1.277       1.058      0.9141      0.7745      0.5189      0.2551      0.1109       0.000    
  47    10.00       9.892       9.792       9.665       9.513       9.369       9.225       9.055       8.876       8.726    
        8.596       8.475       8.314       8.139       7.957       7.765       7.532       7.232       6.939       6.487    
        6.002       5.706       5.439       5.241       5.077       4.957       4.846       4.737       4.642       4.495    
        4.289       4.111       3.940       3.761       3.618       3.403       3.009       2.620       2.290       2.010    
        1.807       1.566       1.326       1.114      0.9359      0.7103      0.4267      0.2230      9.2884E-02   0.000    
  48    10.00       9.880       9.759       9.623       9.485       9.358       9.212       9.055       8.891       8.742    
        8.610       8.467       8.289       8.110       7.931       7.740       7.516       7.234       6.870       6.423    
        6.006       5.702       5.443       5.261       5.128       4.978       4.865       4.775       4.657       4.456    
        4.255       4.081       3.924       3.793       3.604       3.319       2.947       2.597       2.285       2.038    
        1.820       1.591       1.374       1.135      0.8676      0.5769      0.3646      0.2162      9.7695E-02   0.000    
  49    10.00       9.869       9.737       9.604       9.491       9.359       9.204       9.051       8.917       8.763    
        8.604       8.423       8.248       8.098       7.894       7.708       7.522       7.206       6.847       6.491    
        6.052       5.713       5.455       5.296       5.138       4.977       4.890       4.802       4.611       4.370    
        4.199       4.060       3.947       3.775       3.556       3.303       2.931       2.582       2.338       2.075    
        1.818       1.608       1.377       1.096      0.7679      0.5142      0.3646      0.2353      0.1207       0.000    
  50    10.00       9.874       9.742       9.606       9.483       9.353       9.216       9.064       8.924       8.785    
        8.590       8.401       8.241       8.039       7.832       7.690       7.513       7.268       6.913       6.561    
        6.112       5.686       5.462       5.300       5.135       5.004       4.899       4.780       4.555       4.326    
        4.185       4.071       3.939       3.761       3.558       3.317       2.940       2.583       2.346       2.109    
        1.865       1.600       1.340       1.039      0.7158      0.5262      0.3923      0.2659      0.1604       0.000    

 HEAD WILL BE SAVED ON UNIT   51 AT END OF TIME STEP  28, STRESS PERIOD    2

 DRAWDOWN WILL BE SAVED ON UNIT   52 AT END OF TIME STEP  28, STRESS PERIOD    2
1
  VOLUMETRIC BUDGET FOR ENTIRE MODEL AT END OF TIME STEP 28 IN STRESS PERIOD   2
  ------------------------------------------------------------------------------

     CUMULATIVE VOLUMES      L**3       RATES FOR THIS TIME STEP      L**3/T
     ------------------                 ------------------------

           IN:                                      IN:
           ---                                      ---
             STORAGE =       13984.8232               STORAGE =         497.3774
       CONSTANT HEAD =       10816.1387         CONSTANT HEAD =         374.9989
               WELLS =           0.0000                 WELLS =           0.0000

            TOTAL IN =       24800.9609              TOTAL IN =         872.3762

          OUT:                                     OUT:
          ----                                     ----
             STORAGE =       1.1143E-02               STORAGE =           0.0000
       CONSTANT HEAD =       10800.9492         CONSTANT HEAD =         372.3756
               WELLS =       14000.0000                 WELLS =         500.0000

           TOTAL OUT =       24800.9609             TOTAL OUT =         872.3756

            IN - OUT =           0.0000              IN - OUT =       6.1035E-04

 PERCENT DISCREPANCY =           0.00     PERCENT DISCREPANCY =           0.00






          TIME SUMMARY AT END OF TIME STEP  28 IN STRESS PERIOD    2
                    SECONDS     MINUTES      HOURS       DAYS        YEARS
                    -----------------------------------------------------------
   TIME STEP LENGTH  86400.      1440.0      24.000      1.0000     2.73785E-03
 STRESS PERIOD TIME 2.41920E+06  40320.      672.00      28.000     7.66598E-02
         TOTAL TIME 2.50560E+06  41760.      696.00      29.000     7.93977E-02
1
 
 SOLVING FOR HEAD 

 OUTPUT CONTROL FOR STRESS PERIOD    2   TIME STEP  29
    SAVE HEAD FOR ALL LAYERS
    SAVE DRAWDOWN FOR ALL LAYERS
    SAVE BUDGET
    PRINT HEAD FOR ALL LAYERS
    PRINT BUDGET
 UBDSV1 SAVING "         STORAGE" ON UNIT  53 AT TIME STEP 29, STRESS PERIOD   2
 UBDSV2 SAVING "   CONSTANT HEAD" ON UNIT  53 AT TIME STEP 29, STRESS PERIOD   2
 UBDSV1 SAVING "FLOW RIGHT FACE " ON UNIT  53 AT TIME STEP 29, STRESS PERIOD   2
 UBDSV1 SAVING "FLOW FRONT FACE " ON UNIT  53 AT TIME STEP 29, STRESS PERIOD   2
1
              HEAD IN LAYER   1 AT END OF TIME STEP  29 IN STRESS PERIOD    2
  ---------------------------------------------------------------------------

            1           2           3           4           5           6           7           8           9          10
           11          12          13          14          15          16          17          18          19          20
           21          22          23          24          25          26          27          28          29          30
           31          32          33          34          35          36          37          38          39          40
           41          42          43          44          45          46          47          48          49          50
 ........................................................................................................................
   1    10.00       9.953       9.906       9.851       9.808       9.771       9.722       9.654       9.580       9.512    
        9.362       9.173       9.034       8.879       8.714       8.547       8.392       8.214       7.975       7.738    
        7.577       7.391       7.147       6.900       6.679       6.486       6.211       5.961       5.784       5.598    
        5.437       5.331       5.214       5.081       4.953       4.795       4.624       4.393       4.130       3.842    
        3.473       3.097       2.606       2.071       1.670       1.381       1.165      0.9187      0.5393       0.000    
   2    10.00       9.948       9.898       9.851       9.815       9.779       9.725       9.655       9.588       9.495    
        9.348       9.180       9.024       8.882       8.730       8.558       8.374       8.191       7.969       7.730    
        7.553       7.402       7.142       6.874       6.678       6.460       6.196       5.957       5.754       5.578    
        5.441       5.343       5.244       5.101       4.952       4.795       4.599       4.384       4.129       3.801    
        3.454       3.135       2.619       2.087       1.731       1.473       1.224      0.9488      0.5727       0.000    
   3    10.00       9.940       9.898       9.866       9.830       9.794       9.735       9.653       9.570       9.470    
        9.337       9.188       9.037       8.895       8.714       8.499       8.320       8.161       7.958       7.748    
        7.567       7.351       7.096       6.861       6.648       6.404       6.152       5.917       5.708       5.575    
        5.461       5.366       5.266       5.109       4.953       4.786       4.591       4.352       4.067       3.816    
        3.508       3.071       2.568       2.186       1.882       1.582       1.275      0.9617      0.5427       0.000    
   4    10.00       9.940       9.903       9.874       9.850       9.810       9.743       9.648       9.551       9.451    
        9.325       9.191       9.040       8.862       8.640       8.441       8.313       8.135       7.938       7.774    
        7.528       7.256       7.032       6.824       6.617       6.328       6.050       5.862       5.717       5.601    
        5.497       5.397       5.289       5.108       4.914       4.764       4.559       4.311       4.066       3.844    
        3.495       3.013       2.633       2.310       1.983       1.642       1.272      0.9054      0.4638       0.000    
   5    10.00       9.945       9.911       9.882       9.860       9.820       9.749       9.641       9.532       9.433    
        9.325       9.188       8.996       8.788       8.600       8.443       8.284       8.118       7.934       7.705    
        7.421       7.197       7.011       6.799       6.537       6.238       6.008       5.872       5.752       5.636    
        5.517       5.394       5.272       5.099       4.902       4.719       4.536       4.338       4.114       3.820    
        3.424       3.056       2.729       2.402       2.045       1.647       1.184      0.7627      0.3949       0.000    
   6    10.00       9.954       9.921       9.893       9.863       9.818       9.743       9.627       9.532       9.426    
        9.306       9.136       8.927       8.754       8.582       8.403       8.242       8.094       7.889       7.631    
        7.380       7.165       6.976       6.716       6.432       6.205       6.016       5.888       5.758       5.638    
        5.532       5.398       5.244       5.066       4.875       4.717       4.556       4.376       4.139       3.822    
        3.473       3.116       2.780       2.450       2.062       1.581       1.082      0.7175      0.3693       0.000    
   7    10.00       9.960       9.931       9.902       9.869       9.816       9.715       9.604       9.506       9.376    
        9.253       9.074       8.884       8.707       8.531       8.352       8.195       8.060       7.827       7.552    
        7.326       7.111       6.900       6.648       6.406       6.196       6.030       5.882       5.744       5.647    
        5.538       5.392       5.228       5.045       4.878       4.738       4.589       4.402       4.157       3.867    
        3.518       3.150       2.802       2.437       2.053       1.548       1.035      0.6836      0.3234       0.000    
   8    10.00       9.967       9.941       9.909       9.872       9.787       9.664       9.559       9.437       9.313    
        9.178       8.996       8.836       8.657       8.462       8.288       8.152       7.993       7.776       7.510    
        7.250       7.051       6.876       6.619       6.370       6.183       5.996       5.838       5.740       5.648    
        5.520       5.374       5.234       5.070       4.892       4.744       4.630       4.485       4.242       3.906    
        3.523       3.194       2.868       2.442       2.014       1.449      0.9593      0.6698      0.3099       0.000    
   9    10.00       9.974       9.945       9.909       9.846       9.735       9.605       9.483       9.376       9.249    
        9.091       8.929       8.771       8.601       8.401       8.238       8.112       7.927       7.714       7.447    
        7.219       7.023       6.782       6.523       6.312       6.146       5.957       5.820       5.724       5.620    
        5.502       5.370       5.237       5.093       4.939       4.793       4.672       4.542       4.291       3.925    
        3.571       3.276       2.930       2.519       1.885       1.248      0.9141      0.5665      0.2161       0.000    
  10    10.00       9.974       9.944       9.894       9.798       9.667       9.524       9.429       9.328       9.179    
        9.040       8.882       8.725       8.543       8.360       8.213       8.046       7.855       7.632       7.416    
        7.194       6.901       6.653       6.448       6.267       6.118       5.944       5.801       5.706       5.615    
        5.489       5.346       5.227       5.093       4.956       4.854       4.732       4.580       4.291       3.927    
        3.647       3.386       2.988       2.367       1.634       1.172      0.8299      0.5066      0.2527       0.000    
  11    10.00       9.974       9.935       9.857       9.750       9.603       9.477       9.398       9.278       9.151    
        9.019       8.853       8.667       8.473       8.319       8.164       8.010       7.805       7.590       7.378    
        7.071       6.788       6.587       6.400       6.225       6.061       5.899       5.783       5.701       5.612    
        5.470       5.335       5.232       5.110       4.994       4.880       4.742       4.577       4.304       4.010    
        3.714       3.373       2.940       2.255       1.568       1.102      0.7780      0.5900      0.3259       0.000    
  12    10.00       9.973       9.917       9.817       9.678       9.533       9.433       9.355       9.251       9.137    
        8.993       8.817       8.631       8.459       8.302       8.132       7.955       7.749       7.531       7.250    
        6.948       6.731       6.534       6.344       6.152       5.988       5.871       5.780       5.677       5.567    
        5.442       5.336       5.244       5.145       5.041       4.926       4.774       4.571       4.317       4.049    
        3.732       3.360       2.766       1.998       1.414       1.086      0.8641      0.6263      0.3569       0.000    
  13    10.00       9.963       9.877       9.741       9.597       9.474       9.394       9.325       9.237       9.127    
        8.977       8.795       8.624       8.486       8.305       8.097       7.890       7.668       7.428       7.155    
        6.890       6.657       6.445       6.250       6.066       5.944       5.862       5.743       5.612       5.514    
        5.430       5.343       5.260       5.173       5.075       4.972       4.832       4.597       4.333       4.017    
        3.651       3.183       2.497       1.873       1.448       1.168      0.9087      0.6279      0.3101       0.000    
  14    10.00       9.934       9.811       9.662       9.529       9.432       9.379       9.316       9.232       9.113    
        8.948       8.794       8.653       8.509       8.308       8.063       7.842       7.591       7.323       7.041    
        6.784       6.552       6.341       6.149       6.002       5.917       5.821       5.679       5.566       5.488    
        5.425       5.344       5.271       5.189       5.098       5.014       4.851       4.610       4.329       3.934    
        3.503       2.953       2.423       1.967       1.542       1.213      0.9249      0.6286      0.2799       0.000    
  15    10.00       9.877       9.741       9.608       9.502       9.428       9.369       9.311       9.228       9.118    
        8.973       8.823       8.686       8.488       8.256       8.024       7.776       7.515       7.199       6.895    
        6.657       6.432       6.232       6.081       5.968       5.875       5.764       5.629       5.534       5.475    
        5.407       5.338       5.280       5.203       5.116       5.025       4.853       4.621       4.269       3.842    
        3.395       2.898       2.467       1.995       1.637       1.285      0.9363      0.6225      0.2552       0.000    
  16    10.00       9.857       9.710       9.589       9.498       9.431       9.371       9.317       9.238       9.124    
        8.989       8.847       8.682       8.436       8.185       7.993       7.751       7.403       7.041       6.756    
        6.506       6.315       6.153       6.021       5.897       5.812       5.690       5.578       5.501       5.435    
        5.383       5.335       5.271       5.202       5.124       5.020       4.861       4.582       4.197       3.805    
        3.420       2.938       2.452       2.035       1.696       1.327      0.9332      0.5576      0.2098       0.000    
  17    10.00       9.838       9.691       9.594       9.514       9.445       9.387       9.326       9.241       9.136    
        9.011       8.835       8.612       8.349       8.139       7.958       7.669       7.281       6.909       6.631    
        6.425       6.212       6.031       5.896       5.792       5.688       5.579       5.504       5.439       5.395    
        5.368       5.323       5.256       5.185       5.106       4.995       4.808       4.565       4.249       3.835    
        3.391       2.882       2.431       2.062       1.715       1.337      0.9529      0.5809      0.2455       0.000    
  18    10.00       9.829       9.692       9.608       9.535       9.470       9.412       9.339       9.255       9.143    
        8.995       8.789       8.543       8.320       8.114       7.853       7.518       7.165       6.836       6.561    
        6.309       6.035       5.875       5.762       5.671       5.555       5.481       5.417       5.374       5.360    
        5.340       5.299       5.231       5.152       5.069       4.949       4.767       4.566       4.290       3.905    
        3.327       2.783       2.415       2.064       1.768       1.370      0.9470      0.5692      0.2451       0.000    
  19    10.00       9.837       9.722       9.637       9.559       9.493       9.425       9.358       9.281       9.152    
        8.978       8.759       8.516       8.269       8.000       7.718       7.407       7.065       6.734       6.441    
        6.149       5.905       5.775       5.685       5.560       5.455       5.393       5.336       5.320       5.311    
        5.299       5.265       5.188       5.111       5.038       4.942       4.766       4.543       4.263       3.811    
        3.230       2.767       2.400       2.055       1.724       1.313      0.9090      0.5654      0.2663       0.000    
  20    10.00       9.846       9.749       9.674       9.599       9.521       9.440       9.368       9.290       9.160    
        8.972       8.745       8.463       8.144       7.836       7.605       7.291       6.921       6.628       6.336    
        6.074       5.869       5.712       5.577       5.419       5.344       5.301       5.269       5.267       5.262    
        5.256       5.213       5.143       5.088       5.020       4.918       4.717       4.490       4.170       3.664    
        3.163       2.793       2.368       1.974       1.615       1.211      0.9114      0.5612      0.2488       0.000    
  21    10.00       9.869       9.781       9.705       9.624       9.549       9.460       9.382       9.298       9.153    
        8.951       8.676       8.327       7.954       7.664       7.452       7.156       6.883       6.606       6.290    
        6.039       5.814       5.618       5.366       5.234       5.194       5.136       5.164       5.192       5.188    
        5.179       5.140       5.104       5.065       5.000       4.855       4.652       4.452       3.987       3.463    
        3.091       2.693       2.261       1.895       1.515       1.162      0.8250      0.4944      0.2483       0.000    
  22    10.00       9.897       9.805       9.723       9.644       9.574       9.473       9.371       9.275       9.125    
        8.880       8.536       8.143       7.792       7.541       7.318       7.090       6.892       6.589       6.279    
        6.016       5.697       5.347       5.080       4.979       4.883       4.894       4.990       5.029       5.050    
        5.064       5.052       5.050       5.035       4.970       4.811       4.597       4.233       3.709       3.375    
        2.976       2.550       2.163       1.812       1.488       1.070      0.7158      0.4740      0.2664       0.000    
  23    10.00       9.899       9.810       9.736       9.653       9.560       9.446       9.355       9.270       9.082    
        8.782       8.413       8.054       7.747       7.490       7.300       7.085       6.825       6.535       6.287    
        5.924       5.456       5.080       4.805       4.407       4.408       4.620       4.742       4.830       4.911    
        4.947       4.970       4.991       4.991       4.922       4.753       4.439       4.017       3.589       3.183    
        2.806       2.455       2.083       1.806       1.396      0.9721      0.6962      0.4557      0.2366       0.000    
  24    10.00       9.921       9.821       9.723       9.627       9.521       9.419       9.340       9.246       9.025    
        8.684       8.336       8.038       7.771       7.526       7.278       7.014       6.777       6.546       6.255    
        5.820       5.355       4.909       4.088       3.207       3.724       4.219       4.509       4.668       4.798    
        4.865       4.905       4.937       4.922       4.848       4.634       4.283       3.930       3.457       3.026    
        2.731       2.393       2.042       1.688       1.249      0.9019      0.6697      0.4269      0.1883       0.000    
  25    10.00       9.914       9.798       9.678       9.566       9.470       9.392       9.314       9.197       8.968    
        8.610       8.285       8.057       7.809       7.527       7.269       7.022       6.815       6.602       6.231    
        5.731       5.273       4.557       3.219      0.4128       3.125       3.908       4.363       4.601       4.737    
        4.815       4.863       4.888       4.858       4.770       4.539       4.165       3.757       3.373       3.003    
        2.666       2.299       1.900       1.527       1.111      0.8283      0.6671      0.4150      0.1538       0.000    
  26    10.00       9.892       9.743       9.609       9.519       9.441       9.364       9.268       9.130       8.846    
        8.512       8.285       8.067       7.820       7.556       7.309       7.077       6.874       6.608       6.213    
        5.774       5.269       4.644       3.924       3.259       3.615       4.082       4.402       4.595       4.719    
        4.792       4.839       4.844       4.800       4.686       4.421       4.015       3.685       3.374       2.974    
        2.622       2.208       1.750       1.350       1.011      0.8109      0.6311      0.3701      0.1575       0.000    
  27    10.00       9.868       9.709       9.584       9.508       9.407       9.305       9.183       8.997       8.727    
        8.491       8.290       8.067       7.825       7.566       7.371       7.214       6.943       6.607       6.205    
        5.831       5.467       4.969       4.499       4.127       4.189       4.368       4.524       4.646       4.732    
        4.804       4.836       4.823       4.755       4.607       4.311       3.991       3.701       3.340       2.964    
        2.599       2.099       1.576       1.201      0.9648      0.7979      0.6003      0.3913      0.1886       0.000    
  28    10.00       9.851       9.735       9.594       9.464       9.340       9.228       9.082       8.897       8.687    
        8.492       8.311       8.090       7.820       7.590       7.435       7.260       6.959       6.568       6.211    
        5.950       5.681       5.294       4.932       4.699       4.624       4.620       4.666       4.740       4.805    
        4.842       4.843       4.811       4.717       4.530       4.267       4.014       3.675       3.301       2.924    
        2.480       2.011       1.492       1.120      0.9543      0.7948      0.6190      0.4087      0.1895       0.000    
  29    10.00       9.856       9.711       9.562       9.406       9.286       9.159       8.998       8.841       8.674    
        8.499       8.319       8.102       7.874       7.679       7.496       7.261       6.924       6.568       6.293    
        6.073       5.840       5.526       5.207       5.017       4.912       4.846       4.839       4.867       4.879    
        4.872       4.849       4.796       4.676       4.470       4.249       4.018       3.705       3.290       2.814    
        2.409       1.911       1.395       1.103      0.9574      0.8005      0.6143      0.3993      0.1985       0.000    
  30    10.00       9.834       9.688       9.509       9.351       9.241       9.104       8.962       8.841       8.690    
        8.510       8.314       8.115       7.933       7.759       7.552       7.251       6.937       6.655       6.398    
        6.212       5.984       5.700       5.424       5.195       5.099       5.032       4.998       4.967       4.934    
        4.897       4.856       4.780       4.630       4.448       4.277       4.047       3.643       3.136       2.656    
        2.250       1.796       1.403       1.133      0.9794      0.8024      0.6036      0.4186      0.2053       0.000    
  31    10.00       9.812       9.643       9.472       9.330       9.215       9.085       8.959       8.837       8.689    
        8.509       8.310       8.138       7.986       7.820       7.585       7.287       7.019       6.801       6.577    
        6.381       6.126       5.847       5.614       5.381       5.223       5.151       5.082       5.030       4.973    
        4.921       4.857       4.757       4.615       4.444       4.256       3.898       3.454       3.036       2.571    
        2.189       1.738       1.357       1.162      0.9977      0.8311      0.6241      0.4192      0.1986       0.000    
  32    10.00       9.798       9.615       9.469       9.349       9.234       9.098       8.953       8.805       8.664    
        8.485       8.312       8.158       7.989       7.833       7.631       7.402       7.204       6.982       6.752    
        6.555       6.316       6.036       5.790       5.546       5.324       5.230       5.146       5.071       4.990    
        4.922       4.863       4.733       4.564       4.409       4.152       3.715       3.304       2.941       2.519    
        2.075       1.657       1.378       1.229       1.049      0.8384      0.6195      0.3983      0.1986       0.000    
  33    10.00       9.791       9.635       9.517       9.397       9.262       9.098       8.936       8.776       8.614    
        8.464       8.319       8.165       8.004       7.831       7.674       7.507       7.339       7.156       6.932    
        6.701       6.477       6.245       5.960       5.660       5.409       5.275       5.188       5.094       4.995    
        4.921       4.832       4.692       4.537       4.315       3.966       3.527       3.184       2.839       2.352    
        1.952       1.680       1.459       1.281       1.076      0.8550      0.5868      0.3504      0.1578       0.000    
  34    10.00       9.810       9.681       9.570       9.436       9.270       9.096       8.906       8.729       8.592    
        8.459       8.325       8.187       8.020       7.866       7.715       7.570       7.436       7.261       7.030    
        6.812       6.612       6.382       6.083       5.753       5.473       5.305       5.199       5.098       4.988    
        4.893       4.794       4.661       4.467       4.198       3.771       3.350       3.051       2.645       2.221    
        1.977       1.799       1.586       1.356       1.087      0.7754      0.4741      0.2806      0.1163       0.000    
  35    10.00       9.841       9.725       9.612       9.468       9.281       9.081       8.869       8.700       8.583    
        8.494       8.359       8.204       8.025       7.861       7.753       7.648       7.508       7.325       7.106    
        6.900       6.701       6.488       6.147       5.770       5.502       5.319       5.204       5.088       4.962    
        4.870       4.758       4.601       4.344       3.925       3.489       3.215       2.910       2.501       2.250    
        2.081       1.878       1.665       1.441       1.100      0.6592      0.3640      0.2392      0.1214       0.000    
  36    10.00       9.859       9.759       9.650       9.496       9.273       9.028       8.829       8.708       8.619    
        8.496       8.340       8.196       8.037       7.894       7.787       7.685       7.559       7.414       7.210    
        6.995       6.786       6.519       6.145       5.777       5.507       5.335       5.198       5.050       4.933    
        4.823       4.682       4.428       4.043       3.665       3.375       3.125       2.807       2.488       2.324    
        2.153       1.971       1.755       1.467       1.003      0.5548      0.3418      0.2186      0.1123       0.000    
  37    10.00       9.874       9.796       9.678       9.472       9.227       9.010       8.855       8.756       8.647    
        8.487       8.320       8.195       8.057       7.923       7.819       7.723       7.607       7.453       7.272    
        7.096       6.865       6.524       6.168       5.813       5.508       5.297       5.123       4.985       4.867    
        4.736       4.523       4.143       3.802       3.548       3.301       3.047       2.801       2.577       2.394    
        2.229       2.026       1.781       1.401      0.9182      0.5344      0.3199      0.2033      0.1019       0.000    
  38    10.00       9.892       9.798       9.668       9.454       9.201       9.018       8.903       8.799       8.668    
        8.497       8.323       8.200       8.072       7.937       7.833       7.749       7.645       7.491       7.335    
        7.170       6.894       6.500       6.112       5.750       5.448       5.214       5.021       4.890       4.777    
        4.608       4.254       3.928       3.725       3.478       3.238       3.058       2.856       2.651       2.477    
        2.284       2.006       1.695       1.285      0.8057      0.5116      0.3598      0.2241      0.1006       0.000    
  39    10.00       9.891       9.783       9.647       9.440       9.210       9.045       8.942       8.812       8.667    
        8.528       8.353       8.212       8.090       7.959       7.847       7.750       7.647       7.522       7.380    
        7.178       6.873       6.454       6.016       5.644       5.359       5.091       4.890       4.798       4.684    
        4.405       4.058       3.869       3.639       3.413       3.247       3.102       2.918       2.721       2.558    
        2.279       1.887       1.523       1.080      0.7180      0.5540      0.4123      0.2684      0.1381       0.000    
  40    10.00       9.881       9.787       9.648       9.457       9.264       9.102       8.964       8.810       8.678    
        8.572       8.399       8.221       8.096       7.975       7.846       7.738       7.657       7.545       7.364    
        7.124       6.766       6.339       5.925       5.550       5.250       4.939       4.785       4.702       4.547    
        4.298       4.054       3.801       3.569       3.414       3.275       3.137       2.966       2.786       2.572    
        2.195       1.768       1.375       1.018      0.7700      0.6011      0.4600      0.3246      0.1594       0.000    
  41    10.00       9.897       9.821       9.686       9.488       9.287       9.131       9.007       8.855       8.697    
        8.571       8.409       8.242       8.125       7.983       7.828       7.737       7.646       7.494       7.289    
        7.038       6.684       6.253       5.852       5.477       5.072       4.790       4.712       4.617       4.505    
        4.314       4.021       3.770       3.591       3.441       3.317       3.167       3.005       2.819       2.486    
        2.045       1.631       1.290       1.027      0.8129      0.6561      0.5054      0.3570      0.1879       0.000    
  42    10.00       9.923       9.838       9.708       9.536       9.343       9.166       9.037       8.899       8.721    
        8.558       8.403       8.260       8.147       7.995       7.833       7.720       7.593       7.424       7.189    
        6.896       6.507       6.129       5.728       5.237       4.885       4.748       4.685       4.606       4.488    
        4.264       4.010       3.780       3.601       3.481       3.350       3.218       3.043       2.747       2.305    
        1.921       1.614       1.318       1.022      0.8230      0.6897      0.5452      0.3715      0.2061       0.000    
  43    10.00       9.939       9.847       9.712       9.542       9.380       9.223       9.078       8.904       8.718    
        8.567       8.410       8.268       8.162       8.018       7.831       7.678       7.532       7.302       7.002    
        6.718       6.345       5.999       5.535       5.076       4.851       4.745       4.673       4.599       4.475    
        4.263       4.033       3.814       3.641       3.528       3.399       3.225       2.975       2.542       2.153    
        1.914       1.643       1.332       1.024      0.8144      0.6912      0.5799      0.4016      0.1882       0.000    
  44    10.00       9.931       9.853       9.711       9.556       9.439       9.278       9.078       8.880       8.726    
        8.574       8.414       8.289       8.176       8.005       7.801       7.624       7.450       7.178       6.883    
        6.546       6.176       5.809       5.348       5.008       4.843       4.752       4.691       4.610       4.453    
        4.240       4.056       3.864       3.706       3.589       3.410       3.179       2.822       2.384       2.129    
        1.911       1.627       1.318       1.038      0.8238      0.6929      0.5801      0.3933      0.1733       0.000    
  45    10.00       9.916       9.822       9.707       9.594       9.442       9.270       9.079       8.882       8.725    
        8.566       8.421       8.310       8.178       7.989       7.769       7.571       7.374       7.081       6.736    
        6.351       5.963       5.570       5.235       5.002       4.863       4.775       4.710       4.606       4.478    
        4.294       4.087       3.915       3.752       3.583       3.394       3.142       2.763       2.386       2.088    
        1.841       1.574       1.286       1.035      0.8493      0.7408      0.5724      0.3407      0.1553       0.000    
  46    10.00       9.899       9.800       9.709       9.579       9.403       9.237       9.079       8.884       8.716    
        8.574       8.440       8.327       8.166       7.964       7.767       7.556       7.299       6.984       6.611    
        6.161       5.779       5.467       5.215       5.038       4.915       4.806       4.716       4.634       4.493    
        4.297       4.116       3.948       3.758       3.591       3.413       3.129       2.694       2.299       2.035    
        1.803       1.548       1.277       1.058      0.9141      0.7745      0.5189      0.2550      0.1109       0.000    
  47    10.00       9.892       9.792       9.665       9.513       9.369       9.225       9.054       8.876       8.726    
        8.596       8.475       8.313       8.139       7.957       7.765       7.532       7.232       6.939       6.487    
        6.002       5.705       5.439       5.241       5.076       4.956       4.845       4.737       4.642       4.494    
        4.289       4.111       3.939       3.761       3.618       3.402       3.009       2.620       2.290       2.010    
        1.807       1.566       1.326       1.114      0.9359      0.7103      0.4267      0.2230      9.2883E-02   0.000    
  48    10.00       9.880       9.759       9.623       9.485       9.358       9.212       9.055       8.891       8.742    
        8.610       8.467       8.289       8.110       7.931       7.740       7.516       7.234       6.870       6.422    
        6.005       5.702       5.442       5.261       5.127       4.977       4.864       4.774       4.657       4.456    
        4.254       4.080       3.924       3.792       3.604       3.319       2.946       2.597       2.285       2.038    
        1.820       1.591       1.374       1.135      0.8676      0.5769      0.3646      0.2162      9.7694E-02   0.000    
  49    10.00       9.869       9.737       9.604       9.491       9.359       9.204       9.051       8.917       8.763    
        8.604       8.423       8.248       8.098       7.894       7.708       7.521       7.206       6.847       6.491    
        6.051       5.713       5.455       5.296       5.138       4.976       4.889       4.801       4.611       4.370    
        4.198       4.059       3.947       3.775       3.556       3.303       2.931       2.582       2.338       2.075    
        1.818       1.608       1.377       1.096      0.7679      0.5142      0.3646      0.2353      0.1207       0.000    
  50    10.00       9.874       9.742       9.606       9.483       9.353       9.215       9.064       8.923       8.785    
        8.590       8.401       8.241       8.039       7.832       7.690       7.513       7.268       6.913       6.561    
        6.112       5.686       5.462       5.300       5.135       5.003       4.898       4.780       4.554       4.326    
        4.185       4.071       3.938       3.760       3.558       3.316       2.940       2.583       2.346       2.109    
        1.865       1.600       1.340       1.039      0.7158      0.5262      0.3923      0.2659      0.1604       0.000    

 HEAD WILL BE SAVED ON UNIT   51 AT END OF TIME STEP  29, STRESS PERIOD    2

 DRAWDOWN WILL BE SAVED ON UNIT   52 AT END OF TIME STEP  29, STRESS PERIOD    2
1
  VOLUMETRIC BUDGET FOR ENTIRE MODEL AT END OF TIME STEP 29 IN STRESS PERIOD   2
  ------------------------------------------------------------------------------

     CUMULATIVE VOLUMES      L**3       RATES FOR THIS TIME STEP      L**3/T
     ------------------                 ------------------------

           IN:                                      IN:
           ---                                      ---
             STORAGE =       14481.8145               STORAGE =         496.9917
       CONSTANT HEAD =       11191.5029         CONSTANT HEAD =         375.3647
               WELLS =           0.0000                 WELLS =           0.0000

            TOTAL IN =       25673.3164              TOTAL IN =         872.3564

          OUT:                                     OUT:
          ----                                     ----
             STORAGE =       1.1143E-02               STORAGE =           0.0000
       CONSTANT HEAD =       11173.3057         CONSTANT HEAD =         372.3562
               WELLS =       14500.0000                 WELLS =         500.0000

           TOTAL OUT =       25673.3164             TOTAL OUT =         872.3562

            IN - OUT =           0.0000              IN - OUT =       2.4414E-04

 PERCENT DISCREPANCY =           0.00     PERCENT DISCREPANCY =           0.00






          TIME SUMMARY AT END OF TIME STEP  29 IN STRESS PERIOD    2
                    SECONDS     MINUTES      HOURS       DAYS        YEARS
                    -----------------------------------------------------------
   TIME STEP LENGTH  86400.      1440.0      24.000      1.0000     2.73785E-03
 STRESS PERIOD TIME 2.50560E+06  41760.      696.00      29.000     7.93977E-02
         TOTAL TIME 2.59200E+06  43200.      720.00      30.000     8.21355E-02
1
 
 SOLVING FOR HEAD 

 OUTPUT CONTROL FOR STRESS PERIOD    2   TIME STEP  30
    SAVE HEAD FOR ALL LAYERS
    SAVE DRAWDOWN FOR ALL LAYERS
    SAVE BUDGET
    PRINT HEAD FOR ALL LAYERS
    PRINT BUDGET
 UBDSV1 SAVING "         STORAGE" ON UNIT  53 AT TIME STEP 30, STRESS PERIOD   2
 UBDSV2 SAVING "   CONSTANT HEAD" ON UNIT  53 AT TIME STEP 30, STRESS PERIOD   2
 UBDSV1 SAVING "FLOW RIGHT FACE " ON UNIT  53 AT TIME STEP 30, STRESS PERIOD   2
 UBDSV1 SAVING "FLOW FRONT FACE " ON UNIT  53 AT TIME STEP 30, STRESS PERIOD   2
1
              HEAD IN LAYER   1 AT END OF TIME STEP  30 IN STRESS PERIOD    2
  ---------------------------------------------------------------------------

            1           2           3           4           5           6           7           8           9          10
           11          12          13          14          15          16          17          18          19          20
           21          22          23          24          25          26          27          28          29          30
           31          32          33          34          35          36          37          38          39          40
           41          42          43          44          45          46          47          48          49          50
 ........................................................................................................................
   1    10.00       9.953       9.906       9.851       9.808       9.771       9.722       9.654       9.580       9.512    
        9.361       9.173       9.034       8.879       8.713       8.546       8.392       8.213       7.975       7.738    
        7.576       7.390       7.146       6.899       6.678       6.485       6.210       5.960       5.783       5.596    
        5.435       5.329       5.212       5.080       4.952       4.793       4.623       4.393       4.129       3.842    
        3.472       3.097       2.606       2.071       1.670       1.381       1.165      0.9187      0.5392       0.000    
   2    10.00       9.948       9.898       9.851       9.815       9.779       9.725       9.655       9.587       9.495    
        9.348       9.180       9.023       8.882       8.729       8.557       8.374       8.190       7.968       7.729    
        7.552       7.401       7.140       6.873       6.677       6.459       6.194       5.955       5.752       5.576    
        5.439       5.341       5.242       5.100       4.951       4.793       4.597       4.383       4.128       3.800    
        3.454       3.134       2.619       2.087       1.731       1.473       1.224      0.9488      0.5727       0.000    
   3    10.00       9.940       9.898       9.865       9.830       9.793       9.735       9.653       9.570       9.470    
        9.337       9.188       9.037       8.894       8.713       8.498       8.319       8.161       7.957       7.747    
        7.566       7.350       7.095       6.859       6.646       6.402       6.150       5.915       5.705       5.573    
        5.459       5.364       5.264       5.108       4.951       4.784       4.590       4.350       4.066       3.815    
        3.507       3.071       2.568       2.186       1.882       1.582       1.275      0.9616      0.5427       0.000    
   4    10.00       9.940       9.903       9.874       9.849       9.810       9.743       9.648       9.551       9.451    
        9.324       9.190       9.040       8.861       8.640       8.440       8.312       8.134       7.937       7.773    
        7.527       7.255       7.031       6.822       6.615       6.326       6.047       5.860       5.714       5.599    
        5.495       5.394       5.287       5.106       4.912       4.762       4.558       4.309       4.065       3.843    
        3.494       3.013       2.632       2.310       1.983       1.642       1.272      0.9054      0.4638       0.000    
   5    10.00       9.945       9.911       9.882       9.860       9.820       9.749       9.641       9.532       9.433    
        9.325       9.187       8.995       8.787       8.600       8.442       8.283       8.117       7.932       7.703    
        7.420       7.195       7.008       6.796       6.534       6.235       6.005       5.869       5.749       5.633    
        5.514       5.392       5.269       5.097       4.899       4.717       4.534       4.336       4.112       3.819    
        3.423       3.055       2.728       2.402       2.045       1.647       1.184      0.7627      0.3949       0.000    
   6    10.00       9.954       9.921       9.893       9.863       9.818       9.743       9.627       9.532       9.426    
        9.306       9.136       8.926       8.753       8.581       8.402       8.241       8.093       7.887       7.629    
        7.378       7.163       6.973       6.713       6.429       6.201       6.013       5.885       5.754       5.635    
        5.529       5.395       5.241       5.063       4.872       4.715       4.553       4.374       4.137       3.820    
        3.472       3.115       2.780       2.450       2.062       1.581       1.082      0.7175      0.3693       0.000    
   7    10.00       9.960       9.931       9.902       9.869       9.816       9.715       9.604       9.506       9.375    
        9.252       9.073       8.883       8.706       8.530       8.351       8.193       8.059       7.825       7.550    
        7.324       7.107       6.896       6.644       6.401       6.192       6.026       5.878       5.739       5.642    
        5.534       5.388       5.224       5.042       4.875       4.735       4.586       4.399       4.155       3.865    
        3.517       3.149       2.801       2.436       2.053       1.548       1.035      0.6835      0.3234       0.000    
   8    10.00       9.967       9.941       9.909       9.872       9.787       9.664       9.559       9.437       9.313    
        9.177       8.995       8.835       8.656       8.460       8.286       8.150       7.991       7.773       7.507    
        7.246       7.047       6.872       6.614       6.364       6.177       5.991       5.832       5.734       5.642    
        5.514       5.369       5.229       5.065       4.888       4.740       4.626       4.482       4.240       3.904    
        3.522       3.193       2.867       2.441       2.013       1.449      0.9592      0.6697      0.3099       0.000    
   9    10.00       9.974       9.945       9.908       9.846       9.735       9.605       9.483       9.376       9.249    
        9.090       8.928       8.770       8.600       8.399       8.236       8.110       7.924       7.710       7.443    
        7.215       7.018       6.776       6.516       6.305       6.139       5.950       5.813       5.717       5.613    
        5.496       5.363       5.231       5.087       4.934       4.789       4.668       4.539       4.288       3.923    
        3.569       3.275       2.930       2.518       1.884       1.248      0.9140      0.5664      0.2161       0.000    
  10    10.00       9.974       9.944       9.893       9.798       9.666       9.523       9.428       9.327       9.178    
        9.040       8.880       8.723       8.541       8.357       8.211       8.043       7.851       7.627       7.411    
        7.189       6.894       6.646       6.440       6.259       6.109       5.936       5.792       5.698       5.607    
        5.482       5.339       5.220       5.086       4.950       4.849       4.727       4.575       4.287       3.924    
        3.645       3.385       2.987       2.367       1.633       1.172      0.8298      0.5066      0.2527       0.000    
  11    10.00       9.974       9.934       9.856       9.750       9.603       9.476       9.397       9.278       9.151    
        9.018       8.852       8.665       8.471       8.317       8.161       8.006       7.801       7.584       7.372    
        7.064       6.779       6.578       6.391       6.215       6.051       5.889       5.773       5.692       5.603    
        5.461       5.326       5.224       5.103       4.988       4.874       4.736       4.572       4.301       4.007    
        3.712       3.372       2.939       2.255       1.568       1.102      0.7779      0.5900      0.3258       0.000    
  12    10.00       9.973       9.917       9.817       9.678       9.533       9.433       9.354       9.250       9.136    
        8.991       8.816       8.629       8.456       8.299       8.128       7.950       7.743       7.525       7.242    
        6.939       6.722       6.524       6.334       6.141       5.977       5.860       5.769       5.667       5.557    
        5.432       5.326       5.235       5.137       5.033       4.919       4.768       4.566       4.313       4.046    
        3.729       3.358       2.765       1.997       1.414       1.086      0.8641      0.6262      0.3569       0.000    
  13    10.00       9.963       9.877       9.741       9.597       9.473       9.393       9.324       9.236       9.126    
        8.975       8.793       8.622       8.484       8.302       8.092       7.885       7.662       7.421       7.146    
        6.880       6.646       6.433       6.238       6.054       5.931       5.850       5.731       5.600       5.502    
        5.419       5.333       5.250       5.164       5.066       4.964       4.825       4.592       4.329       4.013    
        3.649       3.181       2.496       1.873       1.448       1.168      0.9086      0.6279      0.3101       0.000    
  14    10.00       9.934       9.811       9.661       9.528       9.431       9.378       9.315       9.231       9.112    
        8.946       8.791       8.650       8.506       8.304       8.058       7.836       7.584       7.315       7.031    
        6.773       6.540       6.328       6.136       5.989       5.904       5.808       5.666       5.553       5.476    
        5.413       5.333       5.260       5.179       5.089       5.005       4.844       4.604       4.324       3.930    
        3.501       2.951       2.423       1.967       1.542       1.213      0.9248      0.6285      0.2799       0.000    
  15    10.00       9.876       9.740       9.608       9.501       9.427       9.368       9.310       9.227       9.117    
        8.971       8.820       8.683       8.484       8.251       8.018       7.769       7.507       7.189       6.883    
        6.644       6.418       6.218       6.066       5.953       5.861       5.749       5.615       5.520       5.462    
        5.394       5.326       5.268       5.192       5.106       5.015       4.845       4.615       4.264       3.839    
        3.393       2.897       2.466       1.994       1.636       1.285      0.9362      0.6224      0.2552       0.000    
  16    10.00       9.856       9.710       9.588       9.497       9.430       9.370       9.316       9.236       9.123    
        8.987       8.844       8.678       8.431       8.179       7.986       7.743       7.393       7.029       6.742    
        6.492       6.300       6.137       6.005       5.881       5.796       5.675       5.562       5.487       5.421    
        5.369       5.322       5.259       5.190       5.113       5.010       4.853       4.575       4.192       3.802    
        3.418       2.937       2.451       2.034       1.696       1.327      0.9331      0.5576      0.2098       0.000    
  17    10.00       9.838       9.691       9.594       9.513       9.444       9.385       9.325       9.239       9.134    
        9.008       8.832       8.608       8.343       8.131       7.949       7.659       7.269       6.895       6.615    
        6.409       6.195       6.013       5.878       5.774       5.670       5.562       5.487       5.423       5.379    
        5.353       5.309       5.243       5.173       5.095       4.984       4.799       4.558       4.243       3.831    
        3.389       2.881       2.430       2.062       1.715       1.337      0.9528      0.5808      0.2454       0.000    
  18    10.00       9.829       9.691       9.608       9.534       9.469       9.410       9.337       9.253       9.141    
        8.992       8.785       8.537       8.313       8.106       7.843       7.506       7.151       6.820       6.544    
        6.291       6.016       5.856       5.743       5.651       5.536       5.463       5.399       5.356       5.344    
        5.324       5.284       5.217       5.139       5.057       4.938       4.757       4.558       4.284       3.901    
        3.325       2.782       2.414       2.063       1.768       1.370      0.9469      0.5691      0.2451       0.000    
  19    10.00       9.837       9.722       9.636       9.559       9.492       9.424       9.356       9.279       9.150    
        8.975       8.755       8.510       8.262       7.991       7.707       7.393       7.049       6.717       6.423    
        6.130       5.885       5.755       5.665       5.539       5.435       5.373       5.317       5.301       5.293    
        5.282       5.249       5.173       5.097       5.025       4.930       4.756       4.535       4.257       3.807    
        3.228       2.766       2.399       2.054       1.724       1.313      0.9090      0.5654      0.2663       0.000    
  20    10.00       9.846       9.748       9.673       9.598       9.520       9.439       9.366       9.289       9.158    
        8.969       8.741       8.457       8.136       7.825       7.592       7.276       6.904       6.610       6.316    
        6.054       5.848       5.691       5.556       5.398       5.324       5.280       5.249       5.247       5.242    
        5.237       5.196       5.127       5.074       5.007       4.906       4.707       4.482       4.164       3.661    
        3.161       2.792       2.367       1.974       1.614       1.211      0.9114      0.5612      0.2488       0.000    
  21    10.00       9.869       9.781       9.705       9.623       9.549       9.459       9.380       9.297       9.150    
        8.947       8.671       8.319       7.944       7.652       7.438       7.140       6.865       6.588       6.270    
        6.018       5.793       5.596       5.344       5.212       5.172       5.114       5.143       5.171       5.167    
        5.159       5.121       5.087       5.049       4.986       4.843       4.642       4.444       3.982       3.460    
        3.089       2.692       2.260       1.895       1.515       1.162      0.8250      0.4944      0.2483       0.000    
  22    10.00       9.897       9.805       9.722       9.643       9.573       9.472       9.370       9.273       9.123    
        8.876       8.530       8.134       7.780       7.527       7.302       7.073       6.874       6.570       6.258    
        5.994       5.675       5.324       5.057       4.956       4.860       4.871       4.968       5.007       5.028    
        5.042       5.031       5.031       5.018       4.955       4.798       4.587       4.226       3.705       3.372    
        2.975       2.549       2.162       1.812       1.488       1.070      0.7158      0.4740      0.2664       0.000    
  23    10.00       9.898       9.810       9.735       9.652       9.559       9.445       9.353       9.268       9.079    
        8.778       8.406       8.044       7.735       7.476       7.285       7.068       6.807       6.515       6.267    
        5.901       5.432       5.056       4.782       4.382       4.384       4.596       4.718       4.807       4.888    
        4.924       4.948       4.970       4.972       4.905       4.740       4.430       4.011       3.586       3.181    
        2.805       2.454       2.083       1.806       1.396      0.9721      0.6962      0.4557      0.2366       0.000    
  24    10.00       9.921       9.820       9.722       9.626       9.520       9.418       9.339       9.244       9.022    
        8.679       8.328       8.028       7.758       7.512       7.262       6.996       6.758       6.526       6.234    
        5.798       5.332       4.884       4.062       3.181       3.698       4.194       4.484       4.644       4.774    
        4.842       4.882       4.915       4.902       4.830       4.621       4.274       3.924       3.454       3.024    
        2.730       2.393       2.042       1.688       1.249      0.9018      0.6697      0.4269      0.1883       0.000    
  25    10.00       9.914       9.797       9.678       9.565       9.469       9.391       9.312       9.195       8.965    
        8.604       8.277       8.047       7.797       7.513       7.254       7.004       6.797       6.582       6.209    
        5.708       5.249       4.532       3.193      0.3849       3.098       3.882       4.338       4.576       4.712    
        4.791       4.840       4.865       4.837       4.752       4.526       4.157       3.752       3.370       3.001    
        2.664       2.299       1.900       1.527       1.111      0.8282      0.6670      0.4150      0.1538       0.000    
  26    10.00       9.892       9.743       9.608       9.518       9.440       9.363       9.266       9.127       8.842    
        8.506       8.277       8.057       7.808       7.542       7.293       7.060       6.856       6.588       6.192    
        5.751       5.245       4.619       3.898       3.233       3.589       4.056       4.377       4.570       4.694    
        4.768       4.816       4.822       4.780       4.669       4.408       4.007       3.680       3.370       2.972    
        2.621       2.207       1.750       1.350       1.011      0.8108      0.6311      0.3700      0.1575       0.000    
  27    10.00       9.868       9.709       9.583       9.507       9.405       9.304       9.180       8.994       8.723    
        8.485       8.282       8.058       7.814       7.553       7.356       7.198       6.925       6.587       6.183    
        5.808       5.444       4.945       4.474       4.101       4.163       4.342       4.499       4.621       4.707    
        4.780       4.813       4.801       4.735       4.591       4.299       3.983       3.695       3.336       2.961    
        2.597       2.098       1.576       1.201      0.9647      0.7978      0.6003      0.3913      0.1886       0.000    
  28    10.00       9.850       9.734       9.593       9.463       9.338       9.226       9.080       8.894       8.682    
        8.486       8.304       8.081       7.809       7.578       7.421       7.244       6.941       6.548       6.190    
        5.928       5.658       5.270       4.908       4.674       4.599       4.594       4.641       4.716       4.781    
        4.820       4.821       4.790       4.699       4.515       4.255       4.005       3.669       3.297       2.921    
        2.479       2.010       1.492       1.120      0.9542      0.7947      0.6190      0.4087      0.1894       0.000    
  29    10.00       9.855       9.710       9.561       9.405       9.284       9.157       8.995       8.838       8.669    
        8.494       8.312       8.094       7.864       7.667       7.483       7.246       6.907       6.549       6.273    
        6.052       5.818       5.503       5.183       4.992       4.888       4.822       4.815       4.844       4.857    
        4.850       4.829       4.776       4.659       4.456       4.238       4.009       3.698       3.286       2.812    
        2.408       1.911       1.395       1.103      0.9573      0.8004      0.6143      0.3993      0.1985       0.000    
  30    10.00       9.834       9.687       9.508       9.350       9.239       9.102       8.960       8.838       8.686    
        8.505       8.307       8.107       7.924       7.749       7.540       7.237       6.921       6.637       6.379    
        6.192       5.963       5.678       5.401       5.172       5.075       5.009       4.975       4.945       4.913    
        4.876       4.836       4.762       4.614       4.434       4.265       4.038       3.637       3.132       2.654    
        2.249       1.795       1.403       1.133      0.9793      0.8023      0.6035      0.4186      0.2053       0.000    
  31    10.00       9.812       9.643       9.471       9.328       9.213       9.083       8.956       8.834       8.685    
        8.504       8.304       8.131       7.978       7.811       7.574       7.274       7.004       6.785       6.559    
        6.362       6.106       5.825       5.592       5.358       5.201       5.129       5.061       5.009       4.952    
        4.902       4.839       4.740       4.600       4.431       4.245       3.890       3.449       3.033       2.570    
        2.188       1.737       1.357       1.162      0.9975      0.8310      0.6240      0.4191      0.1986       0.000    
  32    10.00       9.797       9.615       9.468       9.347       9.232       9.096       8.951       8.802       8.660    
        8.480       8.306       8.151       7.981       7.824       7.621       7.391       7.191       6.967       6.736    
        6.538       6.298       6.017       5.770       5.525       5.303       5.210       5.126       5.052       4.971    
        4.904       4.845       4.717       4.550       4.396       4.142       3.709       3.300       2.938       2.518    
        2.075       1.656       1.378       1.228       1.049      0.8383      0.6194      0.3982      0.1986       0.000    
  33    10.00       9.791       9.634       9.516       9.395       9.261       9.096       8.934       8.773       8.610    
        8.460       8.313       8.159       7.997       7.822       7.665       7.497       7.327       7.143       6.917    
        6.686       6.461       6.228       5.941       5.640       5.390       5.256       5.169       5.076       4.978    
        4.904       4.816       4.678       4.524       4.304       3.958       3.521       3.181       2.837       2.351    
        1.951       1.680       1.459       1.281       1.076      0.8549      0.5867      0.3504      0.1578       0.000    
  34    10.00       9.809       9.681       9.569       9.435       9.269       9.094       8.904       8.726       8.589    
        8.454       8.320       8.181       8.013       7.858       7.706       7.561       7.426       7.249       7.017    
        6.798       6.597       6.366       6.066       5.736       5.456       5.287       5.182       5.082       4.972    
        4.878       4.780       4.648       4.455       4.189       3.764       3.346       3.048       2.644       2.220    
        1.976       1.798       1.585       1.356       1.087      0.7753      0.4741      0.2806      0.1163       0.000    
  35    10.00       9.840       9.725       9.611       9.467       9.279       9.079       8.866       8.697       8.580    
        8.490       8.355       8.199       8.019       7.854       7.745       7.639       7.499       7.315       7.095    
        6.887       6.687       6.473       6.132       5.754       5.486       5.304       5.188       5.073       4.948    
        4.856       4.744       4.589       4.333       3.918       3.484       3.211       2.908       2.500       2.249    
        2.080       1.878       1.664       1.441       1.100      0.6591      0.3640      0.2392      0.1214       0.000    
  36    10.00       9.859       9.758       9.649       9.495       9.271       9.026       8.826       8.705       8.615    
        8.492       8.336       8.191       8.032       7.887       7.780       7.677       7.551       7.405       7.200    
        6.984       6.774       6.506       6.132       5.763       5.493       5.321       5.184       5.037       4.919    
        4.810       4.670       4.418       4.036       3.660       3.372       3.122       2.806       2.487       2.323    
        2.152       1.971       1.755       1.467       1.003      0.5547      0.3417      0.2186      0.1123       0.000    
  37    10.00       9.873       9.795       9.677       9.471       9.225       9.009       8.853       8.753       8.644    
        8.483       8.316       8.190       8.052       7.917       7.813       7.717       7.600       7.445       7.263    
        7.087       6.854       6.513       6.157       5.802       5.496       5.284       5.111       4.974       4.856    
        4.725       4.514       4.136       3.797       3.544       3.298       3.045       2.800       2.576       2.393    
        2.229       2.025       1.780       1.401      0.9181      0.5344      0.3199      0.2032      0.1019       0.000    
  38    10.00       9.892       9.797       9.668       9.453       9.200       9.016       8.901       8.796       8.666    
        8.494       8.319       8.196       8.067       7.932       7.827       7.742       7.639       7.484       7.328    
        7.162       6.885       6.492       6.103       5.741       5.439       5.205       5.012       4.881       4.769    
        4.599       4.248       3.923       3.721       3.476       3.236       3.057       2.854       2.650       2.476    
        2.283       2.006       1.695       1.285      0.8056      0.5115      0.3597      0.2241      0.1006       0.000    
  39    10.00       9.890       9.782       9.647       9.439       9.209       9.043       8.940       8.810       8.665    
        8.526       8.349       8.208       8.085       7.954       7.842       7.745       7.641       7.516       7.373    
        7.172       6.866       6.448       6.010       5.637       5.352       5.084       4.884       4.792       4.677    
        4.400       4.054       3.865       3.636       3.411       3.246       3.100       2.916       2.720       2.557    
        2.278       1.886       1.523       1.080      0.7180      0.5539      0.4122      0.2684      0.1381       0.000    
  40    10.00       9.881       9.786       9.647       9.456       9.263       9.100       8.963       8.808       8.675    
        8.570       8.396       8.217       8.092       7.971       7.841       7.733       7.652       7.540       7.359    
        7.119       6.762       6.334       5.920       5.546       5.245       4.935       4.781       4.698       4.543    
        4.294       4.051       3.798       3.567       3.413       3.273       3.135       2.965       2.785       2.572    
        2.194       1.768       1.375       1.018      0.7700      0.6010      0.4600      0.3246      0.1594       0.000    
  41    10.00       9.897       9.821       9.685       9.488       9.286       9.130       9.005       8.854       8.695    
        8.568       8.406       8.239       8.121       7.979       7.824       7.733       7.642       7.489       7.285    
        7.034       6.681       6.250       5.849       5.474       5.069       4.787       4.709       4.614       4.502    
        4.311       4.019       3.768       3.590       3.439       3.316       3.166       3.004       2.818       2.485    
        2.044       1.631       1.290       1.027      0.8129      0.6561      0.5054      0.3569      0.1879       0.000    
  42    10.00       9.923       9.838       9.707       9.536       9.342       9.165       9.036       8.898       8.720    
        8.556       8.401       8.257       8.144       7.992       7.830       7.716       7.589       7.421       7.186    
        6.893       6.505       6.128       5.726       5.235       4.883       4.746       4.683       4.604       4.486    
        4.262       4.008       3.778       3.599       3.480       3.349       3.217       3.042       2.746       2.305    
        1.921       1.614       1.318       1.022      0.8229      0.6897      0.5452      0.3715      0.2061       0.000    
  43    10.00       9.939       9.847       9.712       9.542       9.380       9.222       9.077       8.903       8.717    
        8.566       8.408       8.266       8.160       8.016       7.829       7.676       7.530       7.300       7.000    
        6.717       6.344       5.998       5.534       5.074       4.849       4.743       4.671       4.597       4.473    
        4.261       4.032       3.812       3.640       3.526       3.398       3.224       2.975       2.541       2.152    
        1.914       1.643       1.332       1.024      0.8143      0.6912      0.5798      0.4016      0.1882       0.000    
  44    10.00       9.931       9.853       9.711       9.556       9.438       9.278       9.078       8.880       8.725    
        8.573       8.413       8.288       8.175       8.003       7.800       7.622       7.448       7.177       6.881    
        6.545       6.176       5.808       5.348       5.007       4.842       4.751       4.689       4.609       4.451    
        4.238       4.055       3.863       3.704       3.588       3.409       3.178       2.821       2.384       2.129    
        1.911       1.627       1.318       1.038      0.8238      0.6929      0.5801      0.3933      0.1733       0.000    
  45    10.00       9.916       9.822       9.707       9.594       9.442       9.270       9.078       8.882       8.724    
        8.565       8.420       8.309       8.177       7.988       7.768       7.570       7.373       7.080       6.735    
        6.350       5.963       5.570       5.234       5.001       4.862       4.774       4.708       4.605       4.477    
        4.293       4.086       3.914       3.751       3.582       3.393       3.141       2.763       2.386       2.088    
        1.841       1.574       1.286       1.035      0.8492      0.7408      0.5724      0.3407      0.1553       0.000    
  46    10.00       9.899       9.800       9.709       9.579       9.403       9.236       9.079       8.884       8.715    
        8.574       8.439       8.326       8.166       7.963       7.766       7.556       7.298       6.983       6.610    
        6.161       5.778       5.467       5.214       5.037       4.914       4.805       4.715       4.633       4.492    
        4.296       4.115       3.947       3.757       3.590       3.413       3.129       2.694       2.299       2.034    
        1.803       1.548       1.277       1.058      0.9140      0.7745      0.5188      0.2550      0.1109       0.000    
  47    10.00       9.892       9.792       9.665       9.513       9.369       9.225       9.054       8.876       8.725    
        8.596       8.475       8.313       8.139       7.957       7.765       7.531       7.232       6.939       6.487    
        6.002       5.705       5.438       5.240       5.076       4.955       4.844       4.736       4.641       4.493    
        4.288       4.110       3.939       3.760       3.617       3.402       3.009       2.619       2.290       2.009    
        1.807       1.566       1.326       1.114      0.9359      0.7103      0.4267      0.2230      9.2881E-02   0.000    
  48    10.00       9.880       9.759       9.623       9.485       9.358       9.212       9.055       8.890       8.742    
        8.610       8.466       8.289       8.109       7.931       7.740       7.516       7.234       6.870       6.422    
        6.005       5.701       5.442       5.260       5.127       4.977       4.864       4.773       4.656       4.455    
        4.254       4.080       3.923       3.792       3.603       3.319       2.946       2.597       2.285       2.038    
        1.820       1.591       1.374       1.135      0.8676      0.5769      0.3646      0.2162      9.7693E-02   0.000    
  49    10.00       9.869       9.737       9.604       9.491       9.359       9.204       9.050       8.917       8.763    
        8.604       8.423       8.248       8.098       7.894       7.708       7.521       7.206       6.847       6.491    
        6.051       5.713       5.454       5.296       5.137       4.976       4.888       4.801       4.610       4.369    
        4.198       4.059       3.946       3.775       3.556       3.303       2.930       2.582       2.338       2.075    
        1.818       1.608       1.377       1.096      0.7679      0.5142      0.3646      0.2353      0.1207       0.000    
  50    10.00       9.874       9.742       9.606       9.483       9.353       9.215       9.064       8.923       8.785    
        8.590       8.401       8.241       8.039       7.832       7.690       7.513       7.268       6.913       6.560    
        6.112       5.686       5.461       5.300       5.134       5.003       4.898       4.779       4.554       4.326    
        4.184       4.070       3.938       3.760       3.558       3.316       2.940       2.583       2.346       2.109    
        1.864       1.600       1.340       1.039      0.7158      0.5262      0.3923      0.2659      0.1604       0.000    

 HEAD WILL BE SAVED ON UNIT   51 AT END OF TIME STEP  30, STRESS PERIOD    2

 DRAWDOWN WILL BE SAVED ON UNIT   52 AT END OF TIME STEP  30, STRESS PERIOD    2
1
  VOLUMETRIC BUDGET FOR ENTIRE MODEL AT END OF TIME STEP 30 IN STRESS PERIOD   2
  ------------------------------------------------------------------------------

     CUMULATIVE VOLUMES      L**3       RATES FOR THIS TIME STEP      L**3/T
     ------------------                 ------------------------

           IN:                                      IN:
           ---                                      ---
             STORAGE =       14978.3887               STORAGE =         496.5746
       CONSTANT HEAD =       11567.2617         CONSTANT HEAD =         375.7592
               WELLS =           0.0000                 WELLS =           0.0000

            TOTAL IN =       26545.6504              TOTAL IN =         872.3338

          OUT:                                     OUT:
          ----                                     ----
             STORAGE =       1.1143E-02               STORAGE =           0.0000
       CONSTANT HEAD =       11545.6396         CONSTANT HEAD =         372.3336
               WELLS =       15000.0000                 WELLS =         500.0000

           TOTAL OUT =       26545.6504             TOTAL OUT =         872.3336

            IN - OUT =           0.0000              IN - OUT =       1.8311E-04

 PERCENT DISCREPANCY =           0.00     PERCENT DISCREPANCY =           0.00






          TIME SUMMARY AT END OF TIME STEP  30 IN STRESS PERIOD    2
                    SECONDS     MINUTES      HOURS       DAYS        YEARS
                    -----------------------------------------------------------
   TIME STEP LENGTH  86400.      1440.0      24.000      1.0000     2.73785E-03
 STRESS PERIOD TIME 2.59200E+06  43200.      720.00      30.000     8.21355E-02
         TOTAL TIME 2.67840E+06  44640.      744.00      31.000     8.48734E-02
1
 
 SOLVING FOR HEAD 

 OUTPUT CONTROL FOR STRESS PERIOD    2   TIME STEP  31
    SAVE HEAD FOR ALL LAYERS
    SAVE DRAWDOWN FOR ALL LAYERS
    SAVE BUDGET
    PRINT HEAD FOR ALL LAYERS
    PRINT BUDGET
 UBDSV1 SAVING "         STORAGE" ON UNIT  53 AT TIME STEP 31, STRESS PERIOD   2
 UBDSV2 SAVING "   CONSTANT HEAD" ON UNIT  53 AT TIME STEP 31, STRESS PERIOD   2
 UBDSV1 SAVING "FLOW RIGHT FACE " ON UNIT  53 AT TIME STEP 31, STRESS PERIOD   2
 UBDSV1 SAVING "FLOW FRONT FACE " ON UNIT  53 AT TIME STEP 31, STRESS PERIOD   2
1
              HEAD IN LAYER   1 AT END OF TIME STEP  31 IN STRESS PERIOD    2
  ---------------------------------------------------------------------------

            1           2           3           4           5           6           7           8           9          10
           11          12          13          14          15          16          17          18          19          20
           21          22          23          24          25          26          27          28          29          30
           31          32          33          34          35          36          37          38          39          40
           41          42          43          44          45          46          47          48          49          50
 ........................................................................................................................
   1    10.00       9.953       9.906       9.851       9.808       9.771       9.722       9.654       9.580       9.512    
        9.361       9.173       9.033       8.878       8.713       8.546       8.391       8.213       7.974       7.737    
        7.575       7.389       7.145       6.898       6.676       6.484       6.208       5.958       5.781       5.594    
        5.433       5.327       5.211       5.078       4.950       4.792       4.622       4.391       4.128       3.841    
        3.472       3.097       2.605       2.071       1.670       1.381       1.165      0.9186      0.5392       0.000    
   2    10.00       9.948       9.898       9.851       9.815       9.779       9.724       9.655       9.587       9.495    
        9.348       9.179       9.023       8.882       8.729       8.557       8.373       8.190       7.967       7.728    
        7.552       7.400       7.139       6.872       6.675       6.457       6.193       5.953       5.750       5.574    
        5.437       5.339       5.240       5.098       4.949       4.792       4.596       4.382       4.127       3.799    
        3.453       3.134       2.618       2.087       1.731       1.473       1.224      0.9487      0.5726       0.000    
   3    10.00       9.940       9.898       9.865       9.830       9.793       9.735       9.653       9.570       9.470    
        9.337       9.187       9.037       8.894       8.713       8.498       8.319       8.160       7.956       7.746    
        7.565       7.349       7.093       6.858       6.644       6.401       6.148       5.912       5.703       5.571    
        5.457       5.361       5.262       5.106       4.949       4.782       4.589       4.349       4.065       3.814    
        3.506       3.070       2.568       2.185       1.882       1.582       1.275      0.9616      0.5426       0.000    
   4    10.00       9.940       9.903       9.874       9.849       9.810       9.743       9.648       9.550       9.451    
        9.324       9.190       9.040       8.861       8.639       8.440       8.311       8.133       7.936       7.772    
        7.526       7.253       7.029       6.820       6.613       6.323       6.044       5.857       5.711       5.596    
        5.492       5.392       5.285       5.103       4.910       4.760       4.556       4.308       4.064       3.842    
        3.493       3.012       2.632       2.309       1.982       1.642       1.272      0.9053      0.4638       0.000    
   5    10.00       9.945       9.911       9.882       9.860       9.820       9.749       9.641       9.532       9.433    
        9.325       9.187       8.995       8.786       8.599       8.441       8.282       8.116       7.931       7.702    
        7.418       7.193       7.006       6.794       6.531       6.232       6.002       5.866       5.746       5.630    
        5.511       5.389       5.267       5.094       4.897       4.715       4.531       4.335       4.111       3.818    
        3.422       3.055       2.728       2.402       2.044       1.647       1.183      0.7626      0.3948       0.000    
   6    10.00       9.954       9.921       9.892       9.863       9.818       9.743       9.626       9.532       9.425    
        9.305       9.136       8.925       8.753       8.580       8.401       8.240       8.092       7.886       7.627    
        7.375       7.160       6.970       6.710       6.426       6.197       6.009       5.881       5.751       5.631    
        5.525       5.391       5.238       5.060       4.869       4.712       4.551       4.371       4.135       3.819    
        3.471       3.114       2.779       2.449       2.062       1.581       1.082      0.7174      0.3693       0.000    
   7    10.00       9.960       9.931       9.902       9.869       9.816       9.715       9.603       9.505       9.375    
        9.252       9.072       8.882       8.705       8.529       8.349       8.192       8.057       7.823       7.547    
        7.321       7.104       6.893       6.640       6.397       6.188       6.022       5.873       5.735       5.638    
        5.530       5.384       5.220       5.038       4.872       4.732       4.583       4.397       4.153       3.863    
        3.516       3.148       2.800       2.436       2.053       1.548       1.035      0.6835      0.3234       0.000    
   8    10.00       9.967       9.941       9.909       9.872       9.787       9.664       9.558       9.436       9.312    
        9.177       8.994       8.834       8.655       8.459       8.284       8.148       7.989       7.770       7.503    
        7.242       7.043       6.867       6.610       6.359       6.172       5.985       5.826       5.729       5.636    
        5.509       5.363       5.224       5.061       4.883       4.736       4.622       4.478       4.237       3.902    
        3.520       3.192       2.866       2.441       2.013       1.449      0.9591      0.6696      0.3099       0.000    
   9    10.00       9.974       9.945       9.908       9.846       9.735       9.605       9.482       9.376       9.248    
        9.089       8.927       8.769       8.598       8.397       8.234       8.107       7.921       7.707       7.438    
        7.210       7.013       6.770       6.510       6.298       6.132       5.943       5.805       5.710       5.606    
        5.489       5.356       5.224       5.081       4.928       4.784       4.664       4.535       4.284       3.920    
        3.568       3.274       2.929       2.517       1.884       1.247      0.9139      0.5664      0.2161       0.000    
  10    10.00       9.974       9.944       9.893       9.798       9.666       9.523       9.428       9.327       9.177    
        9.038       8.879       8.722       8.539       8.355       8.208       8.040       7.847       7.623       7.406    
        7.183       6.888       6.638       6.432       6.250       6.101       5.927       5.784       5.690       5.599    
        5.474       5.332       5.213       5.079       4.944       4.843       4.722       4.571       4.284       3.922    
        3.643       3.383       2.986       2.366       1.633       1.172      0.8297      0.5065      0.2527       0.000    
  11    10.00       9.974       9.934       9.856       9.749       9.602       9.476       9.396       9.277       9.150    
        9.017       8.850       8.663       8.468       8.314       8.158       8.002       7.796       7.579       7.366    
        7.056       6.771       6.569       6.382       6.206       6.041       5.879       5.764       5.682       5.594    
        5.453       5.318       5.216       5.095       4.981       4.868       4.731       4.567       4.297       4.004    
        3.709       3.370       2.938       2.254       1.567       1.102      0.7778      0.5899      0.3258       0.000    
  12    10.00       9.973       9.917       9.817       9.677       9.532       9.432       9.353       9.249       9.134    
        8.990       8.814       8.627       8.454       8.296       8.124       7.946       7.738       7.519       7.235    
        6.930       6.712       6.514       6.323       6.130       5.966       5.849       5.759       5.656       5.547    
        5.421       5.317       5.226       5.128       5.026       4.912       4.762       4.561       4.309       4.043    
        3.727       3.356       2.764       1.997       1.413       1.086      0.8639      0.6262      0.3568       0.000    
  13    10.00       9.963       9.877       9.741       9.596       9.472       9.392       9.323       9.235       9.125    
        8.973       8.791       8.619       8.481       8.298       8.088       7.880       7.655       7.413       7.137    
        6.870       6.635       6.422       6.226       6.041       5.919       5.838       5.719       5.589       5.491    
        5.407       5.322       5.240       5.155       5.058       4.956       4.818       4.586       4.325       4.010    
        3.646       3.180       2.495       1.873       1.448       1.168      0.9085      0.6278      0.3101       0.000    
  14    10.00       9.934       9.810       9.661       9.528       9.430       9.377       9.314       9.229       9.110    
        8.944       8.789       8.647       8.503       8.300       8.053       7.830       7.576       7.306       7.021    
        6.762       6.528       6.315       6.122       5.975       5.890       5.795       5.653       5.540       5.463    
        5.401       5.321       5.249       5.169       5.080       4.997       4.836       4.598       4.319       3.927    
        3.498       2.950       2.422       1.966       1.541       1.213      0.9247      0.6285      0.2798       0.000    
  15    10.00       9.876       9.740       9.607       9.501       9.426       9.367       9.308       9.226       9.115    
        8.969       8.818       8.680       8.480       8.246       8.012       7.761       7.499       7.179       6.872    
        6.631       6.405       6.203       6.051       5.939       5.847       5.735       5.601       5.507       5.448    
        5.381       5.314       5.256       5.181       5.096       5.006       4.837       4.608       4.259       3.835    
        3.390       2.895       2.465       1.994       1.636       1.285      0.9361      0.6224      0.2552       0.000    
  16    10.00       9.856       9.709       9.588       9.497       9.429       9.368       9.314       9.235       9.121    
        8.985       8.841       8.674       8.426       8.172       7.978       7.734       7.383       7.017       6.729    
        6.477       6.285       6.121       5.989       5.866       5.780       5.659       5.547       5.472       5.407    
        5.355       5.309       5.246       5.179       5.102       5.000       4.844       4.568       4.187       3.798    
        3.415       2.935       2.450       2.034       1.696       1.327      0.9330      0.5575      0.2098       0.000    
  17    10.00       9.838       9.690       9.593       9.512       9.443       9.384       9.323       9.238       9.132    
        9.006       8.828       8.603       8.337       8.124       7.941       7.649       7.256       6.881       6.600    
        6.393       6.178       5.996       5.861       5.757       5.653       5.545       5.471       5.407       5.364    
        5.338       5.295       5.230       5.161       5.083       4.974       4.790       4.550       4.238       3.827    
        3.386       2.879       2.429       2.061       1.715       1.336      0.9527      0.5808      0.2454       0.000    
  18    10.00       9.829       9.691       9.607       9.534       9.468       9.409       9.336       9.252       9.139    
        8.989       8.781       8.532       8.307       8.098       7.834       7.494       7.137       6.804       6.527    
        6.274       5.998       5.837       5.724       5.633       5.517       5.444       5.381       5.338       5.327    
        5.308       5.269       5.203       5.126       5.045       4.927       4.748       4.550       4.278       3.896    
        3.322       2.781       2.414       2.063       1.768       1.370      0.9468      0.5691      0.2451       0.000    
  19    10.00       9.837       9.721       9.635       9.558       9.491       9.423       9.355       9.277       9.147    
        8.972       8.751       8.504       8.255       7.981       7.695       7.380       7.034       6.700       6.404    
        6.111       5.865       5.735       5.645       5.520       5.415       5.353       5.298       5.282       5.275    
        5.265       5.233       5.159       5.083       5.013       4.919       4.746       4.527       4.251       3.803    
        3.225       2.765       2.399       2.054       1.723       1.313      0.9089      0.5653      0.2663       0.000    
  20    10.00       9.846       9.748       9.672       9.597       9.519       9.438       9.365       9.287       9.156    
        8.965       8.736       8.450       8.127       7.814       7.580       7.262       6.888       6.592       6.297    
        6.034       5.828       5.671       5.535       5.378       5.303       5.260       5.230       5.228       5.223    
        5.219       5.179       5.111       5.059       4.994       4.894       4.697       4.474       4.158       3.657    
        3.159       2.791       2.367       1.974       1.614       1.211      0.9113      0.5612      0.2487       0.000    
  21    10.00       9.868       9.780       9.704       9.622       9.548       9.458       9.379       9.295       9.148    
        8.944       8.666       8.311       7.934       7.639       7.424       7.124       6.848       6.569       6.250    
        5.998       5.772       5.575       5.322       5.190       5.151       5.093       5.123       5.151       5.147    
        5.139       5.102       5.070       5.033       4.972       4.831       4.632       4.436       3.977       3.457    
        3.087       2.691       2.260       1.895       1.515       1.162      0.8249      0.4943      0.2483       0.000    
  22    10.00       9.897       9.804       9.722       9.642       9.572       9.471       9.368       9.271       9.120    
        8.872       8.524       8.124       7.768       7.514       7.287       7.056       6.856       6.551       6.238    
        5.973       5.653       5.302       5.034       4.934       4.837       4.849       4.946       4.986       5.006    
        5.021       5.011       5.012       5.001       4.939       4.786       4.578       4.219       3.701       3.370    
        2.973       2.548       2.162       1.811       1.488       1.069      0.7157      0.4739      0.2664       0.000    
  23    10.00       9.898       9.809       9.735       9.651       9.558       9.444       9.351       9.266       9.076    
        8.773       8.399       8.034       7.722       7.462       7.269       7.051       6.789       6.496       6.246    
        5.880       5.410       5.033       4.758       4.359       4.360       4.573       4.695       4.784       4.865    
        4.902       4.926       4.949       4.953       4.889       4.727       4.421       4.006       3.582       3.179    
        2.804       2.453       2.082       1.805       1.396      0.9720      0.6961      0.4557      0.2366       0.000    
  24    10.00       9.921       9.820       9.722       9.625       9.519       9.416       9.337       9.242       9.019    
        8.673       8.320       8.018       7.746       7.498       7.247       6.979       6.740       6.506       6.214    
        5.776       5.309       4.861       4.038       3.156       3.673       4.169       4.460       4.620       4.750    
        4.819       4.859       4.893       4.882       4.813       4.608       4.266       3.919       3.451       3.022    
        2.729       2.392       2.041       1.688       1.249      0.9018      0.6696      0.4268      0.1883       0.000    
  25    10.00       9.913       9.797       9.677       9.564       9.468       9.390       9.311       9.193       8.961    
        8.599       8.269       8.038       7.786       7.499       7.238       6.987       6.778       6.563       6.188    
        5.686       5.225       4.508       3.168      0.3578       3.073       3.857       4.313       4.552       4.688    
        4.767       4.817       4.844       4.817       4.734       4.513       4.149       3.746       3.367       2.999    
        2.663       2.298       1.900       1.527       1.111      0.8282      0.6670      0.4150      0.1538       0.000    
  26    10.00       9.891       9.742       9.607       9.517       9.439       9.361       9.264       9.125       8.838    
        8.500       8.270       8.048       7.797       7.529       7.278       7.043       6.838       6.569       6.171    
        5.729       5.221       4.595       3.873       3.207       3.564       4.031       4.352       4.546       4.670    
        4.745       4.793       4.801       4.761       4.651       4.395       3.999       3.674       3.366       2.970    
        2.619       2.206       1.750       1.350       1.011      0.8108      0.6310      0.3700      0.1575       0.000    
  27    10.00       9.868       9.708       9.583       9.506       9.404       9.302       9.178       8.991       8.718    
        8.479       8.275       8.049       7.803       7.540       7.342       7.182       6.908       6.568       6.162    
        5.786       5.421       4.921       4.449       4.076       4.138       4.317       4.474       4.596       4.683    
        4.757       4.791       4.780       4.716       4.574       4.287       3.974       3.688       3.331       2.959    
        2.596       2.097       1.575       1.201      0.9646      0.7977      0.6002      0.3913      0.1886       0.000    
  28    10.00       9.850       9.734       9.592       9.462       9.337       9.224       9.077       8.890       8.678    
        8.480       8.297       8.072       7.798       7.565       7.407       7.229       6.925       6.529       6.170    
        5.907       5.636       5.247       4.884       4.650       4.574       4.570       4.617       4.692       4.758    
        4.797       4.799       4.770       4.680       4.500       4.244       3.996       3.663       3.292       2.919    
        2.477       2.009       1.491       1.119      0.9541      0.7946      0.6189      0.4087      0.1894       0.000    
  29    10.00       9.855       9.710       9.560       9.404       9.283       9.155       8.992       8.834       8.665    
        8.488       8.305       8.085       7.854       7.656       7.470       7.232       6.891       6.531       6.253    
        6.032       5.797       5.480       5.160       4.969       4.864       4.798       4.792       4.821       4.835    
        4.829       4.808       4.757       4.642       4.442       4.227       4.000       3.691       3.281       2.809    
        2.407       1.910       1.394       1.103      0.9572      0.8003      0.6142      0.3992      0.1985       0.000    
  30    10.00       9.834       9.687       9.507       9.348       9.237       9.100       8.957       8.834       8.682    
        8.499       8.301       8.099       7.914       7.738       7.528       7.223       6.905       6.620       6.360    
        6.172       5.942       5.656       5.379       5.149       5.052       4.986       4.953       4.923       4.892    
        4.856       4.817       4.744       4.598       4.421       4.254       4.029       3.631       3.129       2.652    
        2.248       1.795       1.403       1.133      0.9791      0.8022      0.6035      0.4185      0.2053       0.000    
  31    10.00       9.812       9.642       9.470       9.327       9.211       9.080       8.953       8.831       8.681    
        8.499       8.297       8.123       7.969       7.801       7.563       7.261       6.990       6.768       6.541    
        6.343       6.086       5.804       5.571       5.337       5.179       5.108       5.040       4.989       4.932    
        4.883       4.820       4.723       4.585       4.418       4.234       3.882       3.444       3.030       2.568    
        2.187       1.737       1.356       1.162      0.9974      0.8309      0.6240      0.4191      0.1986       0.000    
  32    10.00       9.797       9.614       9.467       9.346       9.230       9.093       8.948       8.798       8.656    
        8.475       8.300       8.144       7.973       7.815       7.611       7.379       7.178       6.953       6.719    
        6.521       6.279       5.997       5.750       5.505       5.283       5.190       5.106       5.033       4.952    
        4.886       4.828       4.701       4.536       4.384       4.132       3.702       3.295       2.935       2.516    
        2.074       1.656       1.378       1.228       1.049      0.8382      0.6193      0.3982      0.1986       0.000    
  33    10.00       9.791       9.634       9.515       9.394       9.259       9.094       8.931       8.770       8.606    
        8.455       8.308       8.153       7.989       7.814       7.655       7.486       7.315       7.131       6.903    
        6.670       6.444       6.210       5.922       5.621       5.371       5.237       5.151       5.058       4.961    
        4.887       4.800       4.663       4.511       4.293       3.950       3.516       3.177       2.834       2.350    
        1.951       1.679       1.459       1.281       1.076      0.8548      0.5867      0.3503      0.1578       0.000    
  34    10.00       9.809       9.680       9.569       9.434       9.267       9.092       8.901       8.722       8.585    
        8.450       8.315       8.175       8.006       7.851       7.698       7.551       7.415       7.238       7.004    
        6.785       6.582       6.350       6.050       5.718       5.438       5.270       5.166       5.065       4.956    
        4.863       4.765       4.634       4.443       4.179       3.758       3.342       3.045       2.642       2.219    
        1.976       1.798       1.585       1.356       1.087      0.7751      0.4740      0.2805      0.1163       0.000    
  35    10.00       9.840       9.724       9.611       9.466       9.278       9.077       8.864       8.694       8.576    
        8.486       8.350       8.193       8.012       7.847       7.737       7.631       7.490       7.305       7.083    
        6.874       6.674       6.459       6.116       5.739       5.471       5.288       5.172       5.058       4.933    
        4.841       4.731       4.577       4.323       3.911       3.479       3.208       2.905       2.499       2.248    
        2.080       1.877       1.664       1.440       1.100      0.6590      0.3639      0.2391      0.1214       0.000    
  36    10.00       9.859       9.758       9.649       9.494       9.270       9.024       8.823       8.702       8.612    
        8.488       8.331       8.186       8.026       7.880       7.772       7.669       7.542       7.396       7.190    
        6.973       6.762       6.493       6.119       5.749       5.479       5.306       5.169       5.023       4.906    
        4.797       4.658       4.408       4.028       3.655       3.368       3.119       2.804       2.486       2.322    
        2.151       1.970       1.754       1.466       1.002      0.5546      0.3417      0.2186      0.1123       0.000    
  37    10.00       9.873       9.795       9.677       9.470       9.224       9.007       8.851       8.750       8.641    
        8.479       8.311       8.185       8.047       7.911       7.806       7.710       7.592       7.436       7.254    
        7.077       6.844       6.502       6.146       5.790       5.484       5.272       5.099       4.963       4.844    
        4.714       4.504       4.129       3.792       3.540       3.296       3.043       2.798       2.574       2.392    
        2.228       2.025       1.780       1.401      0.9179      0.5343      0.3198      0.2032      0.1019       0.000    
  38    10.00       9.892       9.797       9.667       9.452       9.198       9.014       8.899       8.794       8.663    
        8.491       8.315       8.191       8.063       7.926       7.821       7.736       7.633       7.477       7.320    
        7.154       6.877       6.483       6.094       5.732       5.430       5.195       5.003       4.873       4.760    
        4.591       4.241       3.919       3.717       3.473       3.234       3.055       2.853       2.649       2.475    
        2.282       2.005       1.695       1.284      0.8055      0.5115      0.3597      0.2241      0.1006       0.000    
  39    10.00       9.890       9.782       9.646       9.438       9.208       9.042       8.938       8.808       8.663    
        8.523       8.346       8.204       8.081       7.949       7.837       7.740       7.635       7.510       7.367    
        7.165       6.860       6.442       6.003       5.631       5.345       5.077       4.877       4.785       4.671    
        4.394       4.049       3.861       3.633       3.409       3.244       3.099       2.915       2.719       2.556    
        2.277       1.886       1.522       1.080      0.7179      0.5539      0.4122      0.2684      0.1381       0.000    
  40    10.00       9.881       9.786       9.647       9.455       9.262       9.099       8.961       8.806       8.673    
        8.567       8.393       8.214       8.088       7.966       7.837       7.729       7.647       7.535       7.354    
        7.114       6.757       6.330       5.916       5.541       5.240       4.930       4.777       4.694       4.539    
        4.291       4.048       3.795       3.565       3.411       3.271       3.134       2.964       2.784       2.571    
        2.194       1.768       1.375       1.018      0.7699      0.6010      0.4599      0.3246      0.1593       0.000    
  41    10.00       9.897       9.821       9.685       9.487       9.285       9.129       9.004       8.852       8.693    
        8.566       8.404       8.236       8.118       7.976       7.820       7.729       7.638       7.485       7.281    
        7.031       6.678       6.247       5.846       5.471       5.065       4.784       4.706       4.611       4.499    
        4.309       4.016       3.766       3.588       3.438       3.314       3.164       3.003       2.817       2.484    
        2.044       1.630       1.290       1.027      0.8128      0.6560      0.5053      0.3569      0.1879       0.000    
  42    10.00       9.923       9.838       9.707       9.535       9.341       9.164       9.035       8.897       8.718    
        8.555       8.399       8.255       8.141       7.989       7.826       7.713       7.586       7.418       7.183    
        6.891       6.503       6.126       5.724       5.233       4.881       4.743       4.680       4.601       4.483    
        4.260       4.006       3.776       3.598       3.478       3.348       3.215       3.041       2.745       2.304    
        1.921       1.613       1.318       1.022      0.8229      0.6896      0.5451      0.3715      0.2061       0.000    
  43    10.00       9.939       9.847       9.712       9.541       9.379       9.221       9.076       8.902       8.716    
        8.565       8.407       8.264       8.158       8.013       7.826       7.673       7.527       7.297       6.998    
        6.715       6.343       5.997       5.533       5.073       4.848       4.742       4.669       4.596       4.471    
        4.260       4.030       3.811       3.639       3.525       3.397       3.223       2.974       2.541       2.152    
        1.914       1.642       1.331       1.024      0.8143      0.6911      0.5798      0.4016      0.1882       0.000    
  44    10.00       9.931       9.853       9.711       9.555       9.438       9.277       9.077       8.879       8.724    
        8.572       8.412       8.286       8.173       8.002       7.798       7.621       7.447       7.175       6.880    
        6.544       6.175       5.807       5.347       5.006       4.841       4.749       4.688       4.607       4.450    
        4.237       4.054       3.862       3.703       3.586       3.408       3.177       2.821       2.384       2.128    
        1.911       1.627       1.317       1.038      0.8237      0.6928      0.5801      0.3933      0.1733       0.000    
  45    10.00       9.916       9.822       9.707       9.593       9.442       9.270       9.078       8.881       8.724    
        8.565       8.420       8.308       8.177       7.987       7.767       7.569       7.372       7.079       6.734    
        6.350       5.962       5.569       5.234       5.000       4.861       4.773       4.707       4.603       4.476    
        4.292       4.085       3.913       3.750       3.581       3.393       3.141       2.763       2.386       2.088    
        1.840       1.574       1.286       1.035      0.8492      0.7408      0.5724      0.3407      0.1553       0.000    
  46    10.00       9.899       9.800       9.709       9.578       9.403       9.236       9.078       8.884       8.715    
        8.574       8.439       8.326       8.165       7.963       7.766       7.555       7.297       6.983       6.610    
        6.161       5.778       5.466       5.214       5.037       4.913       4.804       4.714       4.632       4.491    
        4.295       4.115       3.946       3.757       3.590       3.412       3.129       2.693       2.299       2.034    
        1.803       1.548       1.277       1.058      0.9140      0.7745      0.5188      0.2550      0.1109       0.000    
  47    10.00       9.892       9.792       9.665       9.513       9.369       9.225       9.054       8.876       8.725    
        8.595       8.474       8.313       8.138       7.956       7.764       7.531       7.231       6.939       6.486    
        6.001       5.705       5.438       5.240       5.075       4.954       4.843       4.735       4.640       4.493    
        4.287       4.110       3.938       3.760       3.617       3.402       3.009       2.619       2.290       2.009    
        1.807       1.566       1.326       1.114      0.9358      0.7103      0.4267      0.2230      9.2880E-02   0.000    
  48    10.00       9.880       9.759       9.623       9.485       9.357       9.212       9.055       8.890       8.742    
        8.610       8.466       8.288       8.109       7.931       7.740       7.516       7.234       6.870       6.422    
        6.005       5.701       5.442       5.260       5.126       4.976       4.863       4.773       4.655       4.454    
        4.253       4.080       3.923       3.792       3.603       3.319       2.946       2.597       2.285       2.038    
        1.820       1.591       1.374       1.135      0.8675      0.5769      0.3646      0.2162      9.7692E-02   0.000    
  49    10.00       9.869       9.737       9.604       9.491       9.359       9.204       9.050       8.917       8.762    
        8.604       8.423       8.248       8.097       7.893       7.707       7.521       7.206       6.847       6.491    
        6.051       5.712       5.454       5.295       5.137       4.975       4.888       4.800       4.610       4.369    
        4.197       4.059       3.946       3.775       3.556       3.302       2.930       2.582       2.338       2.075    
        1.818       1.608       1.377       1.096      0.7679      0.5142      0.3646      0.2353      0.1207       0.000    
  50    10.00       9.874       9.742       9.606       9.483       9.353       9.215       9.064       8.923       8.785    
        8.590       8.401       8.241       8.039       7.832       7.690       7.513       7.268       6.913       6.560    
        6.111       5.685       5.461       5.299       5.134       5.003       4.897       4.779       4.554       4.325    
        4.184       4.070       3.938       3.760       3.558       3.316       2.940       2.583       2.345       2.109    
        1.864       1.600       1.340       1.039      0.7158      0.5262      0.3923      0.2659      0.1604       0.000    

 HEAD WILL BE SAVED ON UNIT   51 AT END OF TIME STEP  31, STRESS PERIOD    2

 DRAWDOWN WILL BE SAVED ON UNIT   52 AT END OF TIME STEP  31, STRESS PERIOD    2
1
  VOLUMETRIC BUDGET FOR ENTIRE MODEL AT END OF TIME STEP 31 IN STRESS PERIOD   2
  ------------------------------------------------------------------------------

     CUMULATIVE VOLUMES      L**3       RATES FOR THIS TIME STEP      L**3/T
     ------------------                 ------------------------

           IN:                                      IN:
           ---                                      ---
             STORAGE =       15474.5137               STORAGE =         496.1252
       CONSTANT HEAD =       11943.4443         CONSTANT HEAD =         376.1823
               WELLS =           0.0000                 WELLS =           0.0000

            TOTAL IN =       27417.9570              TOTAL IN =         872.3075

          OUT:                                     OUT:
          ----                                     ----
             STORAGE =       1.1143E-02               STORAGE =           0.0000
       CONSTANT HEAD =       11917.9473         CONSTANT HEAD =         372.3075
               WELLS =       15500.0000                 WELLS =         500.0000

           TOTAL OUT =       27417.9590             TOTAL OUT =         872.3075

            IN - OUT =      -1.9531E-03              IN - OUT =           0.0000

 PERCENT DISCREPANCY =           0.00     PERCENT DISCREPANCY =           0.00






          TIME SUMMARY AT END OF TIME STEP  31 IN STRESS PERIOD    2
                    SECONDS     MINUTES      HOURS       DAYS        YEARS
                    -----------------------------------------------------------
   TIME STEP LENGTH  86400.      1440.0      24.000      1.0000     2.73785E-03
 STRESS PERIOD TIME 2.67840E+06  44640.      744.00      31.000     8.48734E-02
         TOTAL TIME 2.76480E+06  46080.      768.00      32.000     8.76112E-02
1
 
 SOLVING FOR HEAD 

 OUTPUT CONTROL FOR STRESS PERIOD    2   TIME STEP  32
    SAVE HEAD FOR ALL LAYERS
    SAVE DRAWDOWN FOR ALL LAYERS
    SAVE BUDGET
    PRINT HEAD FOR ALL LAYERS
    PRINT BUDGET
 UBDSV1 SAVING "         STORAGE" ON UNIT  53 AT TIME STEP 32, STRESS PERIOD   2
 UBDSV2 SAVING "   CONSTANT HEAD" ON UNIT  53 AT TIME STEP 32, STRESS PERIOD   2
 UBDSV1 SAVING "FLOW RIGHT FACE " ON UNIT  53 AT TIME STEP 32, STRESS PERIOD   2
 UBDSV1 SAVING "FLOW FRONT FACE " ON UNIT  53 AT TIME STEP 32, STRESS PERIOD   2
1
              HEAD IN LAYER   1 AT END OF TIME STEP  32 IN STRESS PERIOD    2
  ---------------------------------------------------------------------------

            1           2           3           4           5           6           7           8           9          10
           11          12          13          14          15          16          17          18          19          20
           21          22          23          24          25          26          27          28          29          30
           31          32          33          34          35          36          37          38          39          40
           41          42          43          44          45          46          47          48          49          50
 ........................................................................................................................
   1    10.00       9.953       9.906       9.851       9.807       9.771       9.722       9.654       9.580       9.511    
        9.361       9.172       9.033       8.878       8.713       8.545       8.390       8.212       7.973       7.736    
        7.574       7.388       7.144       6.896       6.675       6.482       6.207       5.956       5.779       5.592    
        5.431       5.325       5.209       5.076       4.949       4.790       4.620       4.390       4.128       3.840    
        3.471       3.096       2.605       2.071       1.670       1.381       1.165      0.9186      0.5392       0.000    
   2    10.00       9.948       9.898       9.851       9.815       9.779       9.724       9.655       9.587       9.495    
        9.348       9.179       9.023       8.881       8.729       8.556       8.372       8.189       7.966       7.727    
        7.550       7.399       7.138       6.870       6.674       6.456       6.191       5.951       5.748       5.572    
        5.435       5.337       5.238       5.096       4.947       4.790       4.595       4.380       4.126       3.798    
        3.453       3.133       2.618       2.087       1.731       1.473       1.224      0.9487      0.5726       0.000    
   3    10.00       9.940       9.898       9.865       9.830       9.793       9.735       9.653       9.570       9.470    
        9.336       9.187       9.036       8.894       8.712       8.497       8.318       8.159       7.955       7.745    
        7.564       7.347       7.092       6.856       6.642       6.399       6.146       5.910       5.700       5.568    
        5.454       5.359       5.260       5.104       4.947       4.781       4.587       4.348       4.063       3.813    
        3.505       3.070       2.567       2.185       1.882       1.582       1.275      0.9615      0.5426       0.000    
   4    10.00       9.940       9.903       9.874       9.849       9.810       9.743       9.648       9.550       9.451    
        9.324       9.190       9.039       8.860       8.638       8.439       8.310       8.132       7.935       7.771    
        7.524       7.252       7.027       6.818       6.611       6.321       6.042       5.854       5.708       5.593    
        5.489       5.389       5.282       5.101       4.908       4.758       4.554       4.306       4.062       3.841    
        3.492       3.012       2.631       2.309       1.982       1.641       1.272      0.9053      0.4638       0.000    
   5    10.00       9.945       9.911       9.882       9.860       9.820       9.749       9.641       9.532       9.432    
        9.324       9.187       8.994       8.786       8.598       8.440       8.281       8.115       7.930       7.701    
        7.416       7.191       7.004       6.792       6.529       6.229       5.998       5.863       5.743       5.626    
        5.508       5.386       5.264       5.091       4.894       4.712       4.529       4.333       4.109       3.817    
        3.421       3.054       2.727       2.401       2.044       1.647       1.183      0.7626      0.3948       0.000    
   6    10.00       9.954       9.921       9.892       9.862       9.818       9.743       9.626       9.531       9.425    
        9.305       9.135       8.925       8.752       8.579       8.400       8.238       8.090       7.884       7.625    
        7.373       7.158       6.967       6.707       6.422       6.194       6.005       5.877       5.747       5.627    
        5.522       5.388       5.235       5.057       4.866       4.709       4.548       4.369       4.133       3.817    
        3.469       3.113       2.779       2.449       2.061       1.581       1.082      0.7174      0.3692       0.000    
   7    10.00       9.960       9.931       9.901       9.869       9.816       9.715       9.603       9.505       9.374    
        9.251       9.072       8.882       8.704       8.528       8.348       8.190       8.055       7.820       7.544    
        7.318       7.101       6.889       6.636       6.393       6.183       6.017       5.868       5.730       5.633    
        5.525       5.380       5.216       5.034       4.868       4.728       4.580       4.394       4.151       3.862    
        3.515       3.147       2.800       2.435       2.052       1.548       1.035      0.6834      0.3234       0.000    
   8    10.00       9.967       9.941       9.909       9.871       9.786       9.664       9.558       9.436       9.312    
        9.176       8.993       8.833       8.653       8.457       8.282       8.146       7.986       7.767       7.500    
        7.238       7.038       6.863       6.605       6.354       6.166       5.979       5.820       5.723       5.630    
        5.503       5.358       5.218       5.056       4.879       4.732       4.618       4.475       4.234       3.900    
        3.519       3.191       2.865       2.440       2.013       1.449      0.9590      0.6696      0.3098       0.000    
   9    10.00       9.974       9.945       9.908       9.846       9.735       9.605       9.482       9.375       9.247    
        9.088       8.926       8.767       8.596       8.395       8.231       8.105       7.918       7.703       7.434    
        7.205       7.008       6.764       6.503       6.291       6.125       5.936       5.798       5.702       5.599    
        5.482       5.350       5.218       5.075       4.923       4.779       4.660       4.531       4.281       3.918    
        3.566       3.272       2.928       2.517       1.884       1.247      0.9138      0.5663      0.2160       0.000    
  10    10.00       9.974       9.944       9.893       9.798       9.666       9.522       9.427       9.326       9.176    
        9.037       8.877       8.720       8.537       8.352       8.205       8.036       7.843       7.618       7.400    
        7.177       6.881       6.631       6.424       6.242       6.092       5.919       5.775       5.681       5.591    
        5.466       5.324       5.206       5.073       4.937       4.837       4.717       4.566       4.280       3.919    
        3.641       3.382       2.985       2.365       1.633       1.171      0.8296      0.5065      0.2526       0.000    
  11    10.00       9.974       9.934       9.856       9.749       9.602       9.475       9.396       9.276       9.148    
        9.016       8.848       8.661       8.465       8.311       8.154       7.998       7.791       7.574       7.360    
        7.049       6.763       6.560       6.373       6.197       6.032       5.869       5.754       5.673       5.585    
        5.444       5.309       5.208       5.088       4.974       4.862       4.725       4.562       4.293       4.001    
        3.707       3.368       2.936       2.253       1.567       1.102      0.7777      0.5899      0.3258       0.000    
  12    10.00       9.973       9.917       9.817       9.677       9.532       9.431       9.352       9.248       9.133    
        8.989       8.812       8.624       8.451       8.292       8.120       7.941       7.733       7.513       7.227    
        6.921       6.703       6.504       6.313       6.120       5.955       5.838       5.748       5.646       5.536    
        5.411       5.307       5.217       5.120       5.018       4.905       4.756       4.556       4.304       4.040    
        3.724       3.355       2.763       1.996       1.413       1.086      0.8638      0.6261      0.3568       0.000    
  13    10.00       9.963       9.877       9.740       9.596       9.471       9.391       9.322       9.233       9.123    
        8.972       8.789       8.616       8.477       8.295       8.084       7.875       7.649       7.406       7.129    
        6.860       6.625       6.410       6.214       6.029       5.906       5.826       5.707       5.577       5.479    
        5.396       5.312       5.230       5.146       5.049       4.948       4.811       4.581       4.320       4.007    
        3.644       3.178       2.494       1.872       1.447       1.168      0.9084      0.6277      0.3100       0.000    
  14    10.00       9.933       9.810       9.660       9.527       9.429       9.376       9.313       9.228       9.108    
        8.942       8.786       8.644       8.500       8.296       8.048       7.824       7.569       7.298       7.010    
        6.751       6.516       6.303       6.109       5.962       5.877       5.782       5.640       5.528       5.450    
        5.389       5.310       5.239       5.159       5.070       4.988       4.828       4.591       4.314       3.924    
        3.496       2.948       2.421       1.965       1.541       1.213      0.9246      0.6284      0.2798       0.000    
  15    10.00       9.876       9.740       9.606       9.500       9.425       9.366       9.307       9.224       9.113    
        8.966       8.815       8.677       8.476       8.241       8.005       7.754       7.490       7.168       6.860    
        6.618       6.391       6.189       6.037       5.924       5.832       5.721       5.587       5.493       5.435    
        5.368       5.302       5.245       5.171       5.086       4.997       4.829       4.602       4.254       3.832    
        3.388       2.893       2.464       1.993       1.636       1.285      0.9360      0.6223      0.2552       0.000    
  16    10.00       9.856       9.709       9.587       9.496       9.428       9.367       9.313       9.233       9.119    
        8.982       8.838       8.671       8.421       8.166       7.971       7.726       7.373       7.004       6.715    
        6.462       6.270       6.106       5.974       5.850       5.765       5.644       5.532       5.458       5.393    
        5.342       5.296       5.234       5.167       5.091       4.990       4.835       4.561       4.181       3.794    
        3.413       2.934       2.449       2.033       1.695       1.327      0.9329      0.5575      0.2098       0.000    
  17    10.00       9.838       9.690       9.592       9.511       9.442       9.383       9.322       9.236       9.130    
        9.003       8.825       8.598       8.331       8.117       7.933       7.638       7.244       6.867       6.585    
        6.377       6.162       5.979       5.843       5.740       5.636       5.528       5.455       5.391       5.349    
        5.324       5.281       5.217       5.148       5.072       4.963       4.781       4.542       4.232       3.823    
        3.383       2.877       2.429       2.060       1.714       1.336      0.9526      0.5807      0.2454       0.000    
  18    10.00       9.828       9.690       9.606       9.533       9.467       9.408       9.334       9.250       9.136    
        8.986       8.777       8.527       8.300       8.090       7.824       7.483       7.123       6.789       6.511    
        6.257       5.980       5.819       5.705       5.614       5.498       5.426       5.363       5.321       5.311    
        5.293       5.254       5.189       5.113       5.033       4.916       4.738       4.542       4.271       3.891    
        3.319       2.779       2.413       2.062       1.768       1.370      0.9468      0.5691      0.2451       0.000    
  19    10.00       9.836       9.721       9.635       9.557       9.490       9.422       9.353       9.276       9.145    
        8.969       8.746       8.498       8.247       7.972       7.684       7.367       7.018       6.683       6.387    
        6.092       5.846       5.716       5.625       5.500       5.396       5.334       5.279       5.264       5.257    
        5.248       5.217       5.144       5.070       5.000       4.907       4.736       4.519       4.244       3.799    
        3.223       2.763       2.398       2.053       1.723       1.313      0.9088      0.5653      0.2663       0.000    
  20    10.00       9.846       9.747       9.672       9.596       9.518       9.437       9.363       9.285       9.153    
        8.962       8.731       8.444       8.119       7.803       7.568       7.247       6.871       6.574       6.278    
        6.014       5.808       5.651       5.515       5.357       5.283       5.241       5.210       5.209       5.205    
        5.201       5.162       5.095       5.044       4.980       4.882       4.687       4.466       4.152       3.653    
        3.156       2.789       2.366       1.973       1.614       1.211      0.9113      0.5612      0.2487       0.000    
  21    10.00       9.868       9.780       9.704       9.621       9.547       9.457       9.377       9.293       9.145    
        8.940       8.660       8.304       7.923       7.627       7.410       7.108       6.831       6.551       6.231    
        5.978       5.752       5.555       5.301       5.169       5.130       5.072       5.102       5.131       5.128    
        5.120       5.084       5.053       5.017       4.957       4.819       4.622       4.428       3.972       3.454    
        3.085       2.690       2.259       1.894       1.514       1.162      0.8249      0.4943      0.2483       0.000    
  22    10.00       9.897       9.804       9.721       9.642       9.571       9.469       9.367       9.269       9.117    
        8.868       8.517       8.115       7.756       7.500       7.272       7.040       6.839       6.532       6.218    
        5.953       5.632       5.280       5.012       4.912       4.815       4.827       4.925       4.964       4.985    
        5.000       4.991       4.994       4.984       4.924       4.773       4.568       4.212       3.697       3.367    
        2.971       2.547       2.161       1.811       1.487       1.069      0.7157      0.4739      0.2664       0.000    
  23    10.00       9.898       9.809       9.734       9.651       9.557       9.443       9.350       9.264       9.073    
        8.768       8.391       8.024       7.710       7.448       7.254       7.035       6.771       6.477       6.226    
        5.859       5.388       5.010       4.736       4.336       4.337       4.550       4.672       4.761       4.843    
        4.880       4.905       4.929       4.934       4.873       4.714       4.412       4.000       3.579       3.177    
        2.802       2.452       2.082       1.805       1.396      0.9719      0.6961      0.4557      0.2365       0.000    
  24    10.00       9.920       9.820       9.721       9.625       9.518       9.415       9.335       9.240       9.015    
        8.668       8.312       8.007       7.734       7.484       7.231       6.962       6.721       6.487       6.194    
        5.754       5.286       4.838       4.014       3.132       3.649       4.146       4.436       4.596       4.727    
        4.796       4.837       4.872       4.863       4.796       4.595       4.257       3.913       3.448       3.020    
        2.728       2.391       2.041       1.687       1.249      0.9017      0.6696      0.4268      0.1883       0.000    
  25    10.00       9.913       9.796       9.676       9.563       9.467       9.388       9.309       9.190       8.957    
        8.593       8.261       8.028       7.774       7.485       7.222       6.970       6.760       6.544       6.168    
        5.664       5.202       4.484       3.143      0.3314       3.048       3.832       4.289       4.528       4.665    
        4.744       4.794       4.822       4.798       4.717       4.499       4.140       3.741       3.363       2.997    
        2.662       2.297       1.899       1.527       1.111      0.8281      0.6670      0.4150      0.1538       0.000    
  26    10.00       9.891       9.742       9.607       9.516       9.437       9.360       9.262       9.122       8.834    
        8.494       8.262       8.038       7.785       7.515       7.263       7.027       6.821       6.550       6.150    
        5.707       5.199       4.571       3.848       3.182       3.539       4.006       4.327       4.522       4.647    
        4.721       4.771       4.779       4.741       4.634       4.382       3.990       3.668       3.362       2.967    
        2.618       2.205       1.749       1.350       1.011      0.8107      0.6310      0.3700      0.1575       0.000    
  27    10.00       9.867       9.708       9.582       9.505       9.403       9.300       9.176       8.988       8.713    
        8.473       8.267       8.039       7.792       7.527       7.328       7.167       6.891       6.549       6.142    
        5.765       5.399       4.898       4.425       4.052       4.113       4.293       4.450       4.573       4.660    
        4.734       4.769       4.760       4.697       4.558       4.275       3.965       3.682       3.327       2.956    
        2.594       2.096       1.575       1.201      0.9645      0.7976      0.6002      0.3912      0.1886       0.000    
  28    10.00       9.850       9.733       9.591       9.461       9.335       9.222       9.075       8.887       8.673    
        8.474       8.289       8.063       7.787       7.552       7.394       7.214       6.908       6.511       6.150    
        5.886       5.615       5.225       4.861       4.626       4.550       4.546       4.593       4.669       4.735    
        4.776       4.778       4.750       4.662       4.485       4.232       3.987       3.656       3.288       2.916    
        2.475       2.008       1.491       1.119      0.9540      0.7946      0.6188      0.4086      0.1894       0.000    
  29    10.00       9.855       9.709       9.559       9.402       9.281       9.152       8.989       8.830       8.660    
        8.482       8.298       8.077       7.844       7.644       7.457       7.217       6.875       6.513       6.234    
        6.012       5.776       5.459       5.137       4.946       4.841       4.775       4.769       4.799       4.813    
        4.808       4.788       4.738       4.625       4.428       4.215       3.991       3.685       3.277       2.807    
        2.405       1.909       1.394       1.103      0.9571      0.8002      0.6142      0.3992      0.1985       0.000    
  30    10.00       9.833       9.686       9.506       9.347       9.235       9.098       8.954       8.830       8.677    
        8.494       8.294       8.091       7.905       7.727       7.516       7.209       6.890       6.603       6.341    
        6.152       5.922       5.635       5.357       5.126       5.030       4.964       4.932       4.902       4.872    
        4.836       4.798       4.726       4.582       4.408       4.242       4.019       3.625       3.125       2.650    
        2.246       1.794       1.402       1.133      0.9790      0.8021      0.6034      0.4185      0.2052       0.000    
  31    10.00       9.811       9.641       9.469       9.325       9.209       9.078       8.950       8.827       8.676    
        8.494       8.291       8.116       7.961       7.792       7.552       7.248       6.975       6.752       6.524    
        6.325       6.066       5.784       5.550       5.315       5.157       5.087       5.020       4.969       4.913    
        4.864       4.802       4.706       4.570       4.405       4.223       3.874       3.439       3.027       2.566    
        2.186       1.736       1.356       1.161      0.9972      0.8307      0.6239      0.4191      0.1986       0.000    
  32    10.00       9.797       9.613       9.465       9.344       9.228       9.091       8.945       8.795       8.652    
        8.470       8.294       8.137       7.965       7.806       7.601       7.367       7.165       6.938       6.704    
        6.504       6.262       5.979       5.730       5.485       5.262       5.170       5.086       5.014       4.934    
        4.869       4.811       4.685       4.522       4.372       4.122       3.695       3.291       2.932       2.514    
        2.073       1.655       1.377       1.228       1.048      0.8380      0.6192      0.3981      0.1986       0.000    
  33    10.00       9.790       9.633       9.514       9.393       9.257       9.091       8.928       8.766       8.602    
        8.450       8.302       8.146       7.982       7.805       7.646       7.476       7.304       7.118       6.889    
        6.655       6.428       6.193       5.904       5.603       5.352       5.219       5.133       5.041       4.944    
        4.871       4.785       4.649       4.498       4.282       3.941       3.510       3.173       2.832       2.348    
        1.950       1.679       1.458       1.281       1.076      0.8546      0.5866      0.3503      0.1578       0.000    
  34    10.00       9.808       9.679       9.568       9.432       9.265       9.090       8.898       8.719       8.581    
        8.445       8.310       8.169       7.999       7.843       7.689       7.542       7.405       7.226       6.992    
        6.771       6.567       6.335       6.033       5.701       5.421       5.253       5.149       5.049       4.941    
        4.847       4.751       4.621       4.432       4.169       3.751       3.337       3.042       2.640       2.218    
        1.975       1.797       1.585       1.356       1.086      0.7750      0.4739      0.2805      0.1163       0.000    
  35    10.00       9.840       9.724       9.610       9.465       9.276       9.075       8.861       8.691       8.572    
        8.482       8.345       8.188       8.006       7.839       7.729       7.622       7.480       7.294       7.072    
        6.862       6.660       6.445       6.101       5.723       5.455       5.272       5.157       5.043       4.919    
        4.827       4.718       4.565       4.313       3.903       3.475       3.205       2.903       2.497       2.247    
        2.079       1.877       1.663       1.440       1.099      0.6589      0.3639      0.2391      0.1213       0.000    
  36    10.00       9.858       9.757       9.648       9.493       9.268       9.022       8.821       8.699       8.609    
        8.484       8.327       8.181       8.020       7.874       7.765       7.661       7.534       7.387       7.180    
        6.962       6.750       6.480       6.105       5.735       5.464       5.292       5.155       5.010       4.893    
        4.785       4.646       4.398       4.021       3.650       3.365       3.117       2.802       2.485       2.321    
        2.151       1.969       1.754       1.466       1.002      0.5545      0.3416      0.2186      0.1123       0.000    
  37    10.00       9.873       9.795       9.676       9.469       9.223       9.005       8.848       8.748       8.638    
        8.476       8.307       8.181       8.041       7.905       7.800       7.703       7.585       7.428       7.246    
        7.068       6.834       6.491       6.134       5.778       5.472       5.260       5.087       4.952       4.833    
        4.703       4.495       4.122       3.787       3.536       3.293       3.041       2.797       2.573       2.391    
        2.227       2.024       1.779       1.401      0.9178      0.5342      0.3198      0.2032      0.1019       0.000    
  38    10.00       9.892       9.797       9.667       9.451       9.197       9.012       8.896       8.791       8.660    
        8.487       8.311       8.187       8.058       7.921       7.815       7.730       7.626       7.470       7.312    
        7.146       6.868       6.474       6.085       5.723       5.420       5.186       4.994       4.864       4.751    
        4.582       4.235       3.914       3.713       3.469       3.232       3.053       2.851       2.648       2.474    
        2.281       2.004       1.694       1.284      0.8054      0.5114      0.3597      0.2241      0.1005       0.000    
  39    10.00       9.890       9.782       9.646       9.437       9.207       9.040       8.936       8.806       8.660    
        8.520       8.342       8.200       8.076       7.944       7.831       7.734       7.630       7.504       7.360    
        7.158       6.853       6.435       5.996       5.624       5.338       5.071       4.871       4.779       4.665    
        4.389       4.045       3.858       3.630       3.407       3.242       3.097       2.914       2.718       2.555    
        2.276       1.885       1.522       1.080      0.7178      0.5538      0.4122      0.2683      0.1381       0.000    
  40    10.00       9.881       9.786       9.646       9.455       9.261       9.097       8.959       8.804       8.671    
        8.565       8.390       8.210       8.084       7.962       7.832       7.724       7.641       7.529       7.349    
        7.109       6.752       6.325       5.911       5.536       5.235       4.926       4.772       4.689       4.535    
        4.287       4.045       3.793       3.563       3.409       3.270       3.132       2.962       2.783       2.570    
        2.193       1.767       1.374       1.017      0.7698      0.6009      0.4599      0.3245      0.1593       0.000    
  41    10.00       9.897       9.821       9.685       9.486       9.284       9.127       9.003       8.850       8.691    
        8.564       8.401       8.233       8.115       7.972       7.816       7.724       7.633       7.481       7.277    
        7.027       6.674       6.244       5.843       5.467       5.062       4.781       4.703       4.608       4.496    
        4.306       4.014       3.764       3.586       3.436       3.313       3.163       3.001       2.816       2.484    
        2.043       1.630       1.289       1.027      0.8127      0.6560      0.5053      0.3569      0.1879       0.000    
  42    10.00       9.923       9.838       9.707       9.535       9.341       9.163       9.034       8.895       8.717    
        8.553       8.397       8.253       8.139       7.986       7.823       7.709       7.582       7.414       7.180    
        6.889       6.501       6.124       5.722       5.231       4.878       4.741       4.678       4.599       4.481    
        4.258       4.004       3.775       3.596       3.477       3.346       3.214       3.040       2.744       2.304    
        1.920       1.613       1.318       1.021      0.8228      0.6896      0.5451      0.3715      0.2061       0.000    
  43    10.00       9.938       9.847       9.711       9.541       9.379       9.221       9.075       8.901       8.714    
        8.563       8.405       8.262       8.156       8.011       7.824       7.670       7.525       7.295       6.997    
        6.714       6.341       5.996       5.532       5.072       4.846       4.740       4.667       4.593       4.469    
        4.258       4.029       3.809       3.637       3.524       3.395       3.222       2.973       2.540       2.152    
        1.913       1.642       1.331       1.024      0.8142      0.6911      0.5798      0.4016      0.1882       0.000    
  44    10.00       9.931       9.853       9.711       9.555       9.438       9.277       9.077       8.878       8.723    
        8.571       8.411       8.285       8.172       8.000       7.796       7.619       7.445       7.174       6.879    
        6.543       6.174       5.807       5.346       5.005       4.839       4.748       4.686       4.605       4.448    
        4.235       4.052       3.861       3.702       3.585       3.407       3.176       2.820       2.383       2.128    
        1.910       1.627       1.317       1.038      0.8237      0.6928      0.5800      0.3932      0.1733       0.000    
  45    10.00       9.916       9.822       9.707       9.593       9.441       9.270       9.078       8.881       8.723    
        8.564       8.419       8.308       8.176       7.986       7.766       7.568       7.370       7.078       6.734    
        6.349       5.962       5.568       5.233       4.999       4.860       4.772       4.706       4.602       4.475    
        4.291       4.084       3.912       3.749       3.580       3.392       3.140       2.762       2.385       2.088    
        1.840       1.574       1.285       1.035      0.8492      0.7407      0.5724      0.3407      0.1553       0.000    
  46    10.00       9.899       9.800       9.708       9.578       9.403       9.236       9.078       8.883       8.715    
        8.573       8.438       8.325       8.165       7.962       7.765       7.555       7.297       6.982       6.609    
        6.160       5.777       5.466       5.213       5.036       4.913       4.803       4.713       4.631       4.489    
        4.294       4.114       3.945       3.756       3.589       3.412       3.128       2.693       2.299       2.034    
        1.803       1.548       1.277       1.058      0.9140      0.7744      0.5188      0.2550      0.1109       0.000    
  47    10.00       9.892       9.792       9.664       9.513       9.369       9.225       9.054       8.876       8.725    
        8.595       8.474       8.312       8.138       7.956       7.764       7.531       7.231       6.938       6.486    
        6.001       5.704       5.437       5.239       5.075       4.954       4.843       4.734       4.639       4.492    
        4.287       4.109       3.938       3.759       3.617       3.401       3.008       2.619       2.290       2.009    
        1.807       1.566       1.326       1.114      0.9358      0.7102      0.4267      0.2230      9.2877E-02   0.000    
  48    10.00       9.880       9.759       9.623       9.485       9.357       9.212       9.055       8.890       8.742    
        8.609       8.466       8.288       8.109       7.930       7.739       7.515       7.234       6.870       6.422    
        6.005       5.701       5.441       5.259       5.125       4.976       4.862       4.772       4.654       4.454    
        4.253       4.079       3.923       3.791       3.603       3.318       2.946       2.597       2.285       2.038    
        1.819       1.591       1.374       1.135      0.8675      0.5768      0.3646      0.2162      9.7691E-02   0.000    
  49    10.00       9.869       9.737       9.604       9.491       9.359       9.204       9.050       8.917       8.762    
        8.603       8.423       8.247       8.097       7.893       7.707       7.521       7.206       6.846       6.491    
        6.051       5.712       5.454       5.295       5.136       4.975       4.887       4.800       4.609       4.368    
        4.197       4.058       3.946       3.774       3.555       3.302       2.930       2.582       2.338       2.075    
        1.818       1.608       1.377       1.096      0.7679      0.5142      0.3646      0.2353      0.1207       0.000    
  50    10.00       9.874       9.742       9.606       9.483       9.353       9.215       9.064       8.923       8.785    
        8.589       8.401       8.241       8.039       7.832       7.689       7.512       7.268       6.912       6.560    
        6.111       5.685       5.461       5.299       5.133       5.002       4.897       4.778       4.553       4.325    
        4.184       4.069       3.938       3.760       3.557       3.316       2.940       2.583       2.345       2.109    
        1.864       1.600       1.340       1.039      0.7158      0.5261      0.3923      0.2659      0.1604       0.000    

 HEAD WILL BE SAVED ON UNIT   51 AT END OF TIME STEP  32, STRESS PERIOD    2

 DRAWDOWN WILL BE SAVED ON UNIT   52 AT END OF TIME STEP  32, STRESS PERIOD    2
1
  VOLUMETRIC BUDGET FOR ENTIRE MODEL AT END OF TIME STEP 32 IN STRESS PERIOD   2
  ------------------------------------------------------------------------------

     CUMULATIVE VOLUMES      L**3       RATES FOR THIS TIME STEP      L**3/T
     ------------------                 ------------------------

           IN:                                      IN:
           ---                                      ---
             STORAGE =       15970.1572               STORAGE =         495.6440
       CONSTANT HEAD =       12320.0781         CONSTANT HEAD =         376.6339
               WELLS =           0.0000                 WELLS =           0.0000

            TOTAL IN =       28290.2344              TOTAL IN =         872.2779

          OUT:                                     OUT:
          ----                                     ----
             STORAGE =       1.1143E-02               STORAGE =           0.0000
       CONSTANT HEAD =       12290.2246         CONSTANT HEAD =         372.2776
               WELLS =       16000.0000                 WELLS =         500.0000

           TOTAL OUT =       28290.2363             TOTAL OUT =         872.2776

            IN - OUT =      -1.9531E-03              IN - OUT =       3.0518E-04

 PERCENT DISCREPANCY =           0.00     PERCENT DISCREPANCY =           0.00






          TIME SUMMARY AT END OF TIME STEP  32 IN STRESS PERIOD    2
                    SECONDS     MINUTES      HOURS       DAYS        YEARS
                    -----------------------------------------------------------
   TIME STEP LENGTH  86400.      1440.0      24.000      1.0000     2.73785E-03
 STRESS PERIOD TIME 2.76480E+06  46080.      768.00      32.000     8.76112E-02
         TOTAL TIME 2.85120E+06  47520.      792.00      33.000     9.03491E-02
1
 
 SOLVING FOR HEAD 

 OUTPUT CONTROL FOR STRESS PERIOD    2   TIME STEP  33
    SAVE HEAD FOR ALL LAYERS
    SAVE DRAWDOWN FOR ALL LAYERS
    SAVE BUDGET
    PRINT HEAD FOR ALL LAYERS
    PRINT BUDGET
 UBDSV1 SAVING "         STORAGE" ON UNIT  53 AT TIME STEP 33, STRESS PERIOD   2
 UBDSV2 SAVING "   CONSTANT HEAD" ON UNIT  53 AT TIME STEP 33, STRESS PERIOD   2
 UBDSV1 SAVING "FLOW RIGHT FACE " ON UNIT  53 AT TIME STEP 33, STRESS PERIOD   2
 UBDSV1 SAVING "FLOW FRONT FACE " ON UNIT  53 AT TIME STEP 33, STRESS PERIOD   2
1
              HEAD IN LAYER   1 AT END OF TIME STEP  33 IN STRESS PERIOD    2
  ---------------------------------------------------------------------------

            1           2           3           4           5           6           7           8           9          10
           11          12          13          14          15          16          17          18          19          20
           21          22          23          24          25          26          27          28          29          30
           31          32          33          34          35          36          37          38          39          40
           41          42          43          44          45          46          47          48          49          50
 ........................................................................................................................
   1    10.00       9.953       9.906       9.851       9.807       9.771       9.722       9.654       9.580       9.511    
        9.361       9.172       9.033       8.877       8.712       8.545       8.390       8.211       7.972       7.735    
        7.573       7.387       7.143       6.895       6.674       6.480       6.205       5.954       5.777       5.590    
        5.428       5.323       5.206       5.074       4.947       4.789       4.619       4.389       4.126       3.839    
        3.470       3.096       2.605       2.071       1.669       1.381       1.165      0.9185      0.5391       0.000    
   2    10.00       9.948       9.898       9.851       9.815       9.779       9.724       9.655       9.587       9.495    
        9.348       9.179       9.022       8.881       8.728       8.556       8.372       8.188       7.966       7.726    
        7.549       7.397       7.137       6.869       6.672       6.454       6.189       5.949       5.746       5.569    
        5.432       5.334       5.236       5.094       4.945       4.788       4.593       4.379       4.125       3.797    
        3.452       3.133       2.618       2.087       1.731       1.473       1.224      0.9486      0.5726       0.000    
   3    10.00       9.940       9.898       9.865       9.830       9.793       9.735       9.652       9.570       9.470    
        9.336       9.187       9.036       8.893       8.712       8.496       8.317       8.158       7.954       7.744    
        7.562       7.346       7.090       6.854       6.640       6.396       6.144       5.907       5.698       5.565    
        5.452       5.356       5.258       5.101       4.945       4.779       4.585       4.346       4.062       3.812    
        3.505       3.069       2.567       2.185       1.881       1.581       1.275      0.9614      0.5426       0.000    
   4    10.00       9.940       9.903       9.874       9.849       9.810       9.743       9.648       9.550       9.451    
        9.324       9.189       9.039       8.860       8.638       8.438       8.310       8.131       7.934       7.770    
        7.523       7.250       7.025       6.816       6.609       6.318       6.039       5.850       5.705       5.590    
        5.486       5.387       5.279       5.099       4.906       4.756       4.552       4.305       4.061       3.840    
        3.491       3.011       2.631       2.309       1.982       1.641       1.272      0.9052      0.4637       0.000    
   5    10.00       9.945       9.911       9.882       9.860       9.820       9.748       9.640       9.532       9.432    
        9.324       9.186       8.994       8.785       8.597       8.439       8.280       8.114       7.929       7.699    
        7.414       7.189       7.002       6.789       6.526       6.226       5.995       5.859       5.739       5.623    
        5.504       5.383       5.261       5.088       4.892       4.710       4.527       4.330       4.107       3.815    
        3.420       3.053       2.726       2.401       2.044       1.647       1.183      0.7625      0.3948       0.000    
   6    10.00       9.954       9.921       9.892       9.862       9.818       9.742       9.626       9.531       9.425    
        9.304       9.134       8.924       8.751       8.578       8.399       8.237       8.089       7.883       7.623    
        7.371       7.155       6.965       6.704       6.418       6.190       6.001       5.873       5.743       5.623    
        5.518       5.384       5.231       5.053       4.863       4.706       4.545       4.367       4.131       3.816    
        3.468       3.112       2.778       2.448       2.061       1.581       1.082      0.7173      0.3692       0.000    
   7    10.00       9.960       9.931       9.901       9.869       9.816       9.715       9.603       9.505       9.374    
        9.251       9.071       8.881       8.703       8.526       8.346       8.188       8.053       7.818       7.542    
        7.315       7.097       6.885       6.632       6.389       6.179       6.013       5.864       5.725       5.628    
        5.521       5.375       5.212       5.030       4.864       4.725       4.576       4.391       4.148       3.860    
        3.513       3.146       2.799       2.435       2.052       1.548       1.035      0.6833      0.3233       0.000    
   8    10.00       9.967       9.941       9.909       9.871       9.786       9.663       9.558       9.435       9.311    
        9.175       8.992       8.831       8.652       8.455       8.280       8.144       7.984       7.764       7.496    
        7.234       7.034       6.858       6.599       6.348       6.161       5.974       5.814       5.717       5.624    
        5.497       5.352       5.213       5.051       4.875       4.728       4.614       4.471       4.231       3.897    
        3.517       3.190       2.864       2.440       2.012       1.449      0.9589      0.6695      0.3098       0.000    
   9    10.00       9.974       9.945       9.908       9.846       9.734       9.604       9.481       9.374       9.247    
        9.087       8.925       8.766       8.594       8.393       8.229       8.102       7.914       7.699       7.429    
        7.200       7.002       6.758       6.497       6.284       6.117       5.929       5.791       5.695       5.591    
        5.475       5.343       5.212       5.069       4.917       4.774       4.655       4.527       4.278       3.915    
        3.564       3.271       2.927       2.516       1.883       1.247      0.9137      0.5663      0.2160       0.000    
  10    10.00       9.974       9.944       9.893       9.798       9.665       9.522       9.427       9.325       9.175    
        9.036       8.876       8.718       8.534       8.349       8.202       8.033       7.839       7.613       7.395    
        7.172       6.874       6.623       6.416       6.234       6.084       5.910       5.767       5.673       5.583    
        5.459       5.316       5.198       5.066       4.931       4.831       4.711       4.562       4.277       3.916    
        3.639       3.380       2.984       2.365       1.633       1.171      0.8295      0.5064      0.2526       0.000    
  11    10.00       9.974       9.934       9.856       9.749       9.601       9.475       9.395       9.275       9.147    
        9.014       8.847       8.659       8.463       8.307       8.150       7.994       7.786       7.568       7.354    
        7.042       6.754       6.552       6.364       6.187       6.022       5.859       5.744       5.664       5.576    
        5.435       5.301       5.200       5.080       4.967       4.856       4.720       4.557       4.289       3.998    
        3.704       3.366       2.935       2.253       1.567       1.101      0.7776      0.5898      0.3257       0.000    
  12    10.00       9.972       9.917       9.816       9.677       9.531       9.431       9.351       9.247       9.132    
        8.987       8.810       8.622       8.448       8.289       8.116       7.936       7.727       7.506       7.220    
        6.912       6.693       6.494       6.302       6.109       5.944       5.827       5.737       5.635       5.526    
        5.401       5.298       5.208       5.111       5.010       4.898       4.750       4.550       4.300       4.036    
        3.722       3.353       2.762       1.996       1.413       1.085      0.8637      0.6260      0.3568       0.000    
  13    10.00       9.963       9.877       9.740       9.595       9.471       9.390       9.321       9.232       9.122    
        8.970       8.786       8.613       8.474       8.291       8.079       7.869       7.643       7.398       7.120    
        6.850       6.614       6.399       6.202       6.017       5.894       5.814       5.696       5.566       5.468    
        5.385       5.301       5.220       5.136       5.040       4.940       4.804       4.575       4.316       4.003    
        3.641       3.176       2.493       1.872       1.447       1.167      0.9082      0.6277      0.3100       0.000    
  14    10.00       9.933       9.810       9.660       9.526       9.429       9.375       9.311       9.227       9.107    
        8.940       8.784       8.641       8.496       8.292       8.043       7.818       7.562       7.289       7.000    
        6.739       6.504       6.290       6.096       5.948       5.864       5.769       5.627       5.515       5.438    
        5.377       5.298       5.228       5.149       5.061       4.979       4.821       4.585       4.309       3.920    
        3.493       2.947       2.420       1.965       1.541       1.212      0.9244      0.6283      0.2798       0.000    
  15    10.00       9.876       9.739       9.606       9.499       9.424       9.365       9.306       9.223       9.111    
        8.964       8.812       8.674       8.472       8.236       7.999       7.747       7.482       7.158       6.848    
        6.606       6.377       6.175       6.023       5.910       5.818       5.707       5.573       5.480       5.422    
        5.355       5.289       5.233       5.160       5.076       4.987       4.820       4.595       4.249       3.828    
        3.385       2.892       2.463       1.993       1.635       1.284      0.9358      0.6222      0.2551       0.000    
  16    10.00       9.856       9.708       9.586       9.495       9.427       9.366       9.311       9.231       9.117    
        8.980       8.835       8.667       8.416       8.160       7.964       7.717       7.362       6.992       6.702    
        6.448       6.255       6.090       5.958       5.835       5.750       5.629       5.518       5.443       5.379    
        5.328       5.283       5.222       5.155       5.080       4.980       4.826       4.554       4.176       3.790    
        3.410       2.932       2.448       2.032       1.695       1.326      0.9328      0.5574      0.2098       0.000    
  17    10.00       9.837       9.689       9.592       9.510       9.441       9.382       9.320       9.234       9.128    
        9.000       8.821       8.594       8.325       8.109       7.925       7.628       7.232       6.853       6.570    
        6.362       6.146       5.962       5.826       5.723       5.619       5.512       5.438       5.376       5.334    
        5.310       5.267       5.204       5.136       5.060       4.953       4.771       4.535       4.226       3.818    
        3.381       2.876       2.428       2.060       1.714       1.336      0.9525      0.5807      0.2454       0.000    
  18    10.00       9.828       9.689       9.605       9.532       9.466       9.407       9.333       9.248       9.134    
        8.983       8.773       8.521       8.293       8.082       7.814       7.471       7.109       6.774       6.494    
        6.240       5.962       5.801       5.687       5.596       5.480       5.408       5.346       5.304       5.295    
        5.277       5.239       5.176       5.100       5.021       4.905       4.729       4.533       4.264       3.887    
        3.317       2.778       2.412       2.062       1.767       1.370      0.9467      0.5690      0.2450       0.000    
  19    10.00       9.836       9.720       9.634       9.556       9.489       9.420       9.352       9.274       9.143    
        8.965       8.742       8.492       8.240       7.963       7.673       7.354       7.004       6.666       6.369    
        6.073       5.827       5.697       5.606       5.481       5.377       5.316       5.261       5.246       5.240    
        5.232       5.201       5.129       5.056       4.987       4.895       4.726       4.510       4.238       3.794    
        3.220       2.762       2.397       2.053       1.723       1.313      0.9088      0.5653      0.2663       0.000    
  20    10.00       9.845       9.747       9.671       9.595       9.517       9.435       9.362       9.283       9.151    
        8.958       8.727       8.437       8.110       7.792       7.555       7.233       6.855       6.556       6.260    
        5.995       5.789       5.631       5.495       5.338       5.263       5.221       5.191       5.190       5.187    
        5.183       5.145       5.080       5.030       4.967       4.870       4.677       4.457       4.145       3.649    
        3.154       2.788       2.365       1.973       1.614       1.211      0.9112      0.5611      0.2487       0.000    
  21    10.00       9.868       9.780       9.703       9.621       9.546       9.456       9.376       9.291       9.142    
        8.936       8.655       8.296       7.913       7.615       7.396       7.093       6.814       6.533       6.212    
        5.958       5.732       5.535       5.281       5.148       5.110       5.052       5.083       5.112       5.108    
        5.101       5.065       5.036       5.001       4.943       4.807       4.612       4.419       3.966       3.451    
        3.083       2.689       2.258       1.894       1.514       1.162      0.8248      0.4943      0.2483       0.000    
  22    10.00       9.896       9.804       9.721       9.641       9.570       9.468       9.365       9.267       9.114    
        8.863       8.511       8.106       7.745       7.487       7.258       7.024       6.822       6.514       6.199    
        5.933       5.611       5.259       4.991       4.891       4.794       4.806       4.904       4.944       4.964    
        4.980       4.971       4.975       4.967       4.909       4.761       4.558       4.205       3.693       3.364    
        2.969       2.546       2.161       1.811       1.487       1.069      0.7156      0.4739      0.2663       0.000    
  23    10.00       9.898       9.809       9.733       9.650       9.556       9.441       9.348       9.262       9.070    
        8.763       8.384       8.014       7.698       7.434       7.239       7.019       6.754       6.458       6.207    
        5.838       5.366       4.988       4.713       4.313       4.315       4.528       4.650       4.739       4.821    
        4.859       4.884       4.909       4.916       4.856       4.701       4.403       3.994       3.575       3.174    
        2.801       2.451       2.081       1.805       1.396      0.9719      0.6960      0.4556      0.2365       0.000    
  24    10.00       9.920       9.819       9.721       9.624       9.517       9.413       9.334       9.238       9.012    
        8.662       8.304       7.997       7.722       7.471       7.216       6.945       6.704       6.468       6.174    
        5.733       5.264       4.815       3.991       3.108       3.625       4.122       4.413       4.573       4.705    
        4.774       4.816       4.851       4.844       4.779       4.582       4.248       3.907       3.444       3.018    
        2.726       2.390       2.040       1.687       1.249      0.9016      0.6696      0.4268      0.1883       0.000    
  25    10.00       9.913       9.796       9.676       9.562       9.465       9.386       9.307       9.188       8.954    
        8.587       8.253       8.018       7.762       7.472       7.207       6.954       6.743       6.525       6.148    
        5.643       5.180       4.461       3.118      0.3057       3.023       3.808       4.265       4.505       4.642    
        4.722       4.772       4.801       4.778       4.700       4.486       4.131       3.735       3.359       2.994    
        2.660       2.296       1.899       1.526       1.111      0.8280      0.6669      0.4150      0.1538       0.000    
  26    10.00       9.891       9.741       9.606       9.515       9.436       9.358       9.260       9.120       8.829    
        8.487       8.254       8.029       7.774       7.502       7.248       7.011       6.803       6.531       6.130    
        5.685       5.176       4.548       3.824       3.158       3.514       3.982       4.304       4.498       4.624    
        4.699       4.749       4.759       4.722       4.618       4.369       3.982       3.662       3.358       2.965    
        2.616       2.204       1.749       1.349       1.010      0.8106      0.6309      0.3700      0.1574       0.000    
  27    10.00       9.867       9.707       9.581       9.504       9.401       9.298       9.174       8.985       8.709    
        8.466       8.259       8.030       7.781       7.514       7.314       7.152       6.874       6.531       6.122    
        5.744       5.377       4.875       4.402       4.028       4.089       4.269       4.426       4.549       4.637    
        4.712       4.748       4.739       4.679       4.542       4.263       3.957       3.676       3.323       2.953    
        2.592       2.096       1.575       1.200      0.9644      0.7975      0.6001      0.3912      0.1886       0.000    
  28    10.00       9.849       9.732       9.590       9.460       9.333       9.220       9.072       8.883       8.668    
        8.468       8.282       8.055       7.777       7.540       7.380       7.200       6.892       6.493       6.131    
        5.866       5.594       5.203       4.838       4.603       4.527       4.522       4.570       4.646       4.713    
        4.754       4.757       4.730       4.644       4.470       4.220       3.978       3.650       3.284       2.913    
        2.474       2.007       1.490       1.119      0.9539      0.7944      0.6188      0.4086      0.1894       0.000    
  29    10.00       9.854       9.708       9.558       9.401       9.279       9.150       8.986       8.826       8.655    
        8.476       8.291       8.069       7.834       7.633       7.444       7.203       6.859       6.495       6.215    
        5.992       5.755       5.437       5.115       4.923       4.818       4.752       4.747       4.777       4.792    
        4.787       4.768       4.719       4.608       4.414       4.204       3.982       3.678       3.272       2.804    
        2.404       1.908       1.394       1.103      0.9569      0.8001      0.6141      0.3992      0.1985       0.000    
  30    10.00       9.833       9.686       9.505       9.345       9.234       9.095       8.951       8.827       8.673    
        8.488       8.287       8.083       7.896       7.717       7.504       7.195       6.874       6.586       6.323    
        6.134       5.902       5.614       5.335       5.104       5.008       4.943       4.910       4.881       4.851    
        4.816       4.779       4.708       4.566       4.394       4.231       4.010       3.618       3.121       2.648    
        2.245       1.793       1.402       1.132      0.9788      0.8020      0.6033      0.4184      0.2052       0.000    
  31    10.00       9.811       9.640       9.467       9.323       9.207       9.076       8.947       8.824       8.672    
        8.488       8.285       8.108       7.952       7.782       7.541       7.235       6.961       6.737       6.507    
        6.307       6.047       5.764       5.529       5.294       5.137       5.066       5.000       4.949       4.894    
        4.845       4.784       4.689       4.555       4.392       4.212       3.865       3.433       3.023       2.564    
        2.185       1.735       1.356       1.161      0.9971      0.8306      0.6238      0.4190      0.1985       0.000    
  32    10.00       9.796       9.612       9.464       9.343       9.226       9.088       8.942       8.791       8.648    
        8.465       8.288       8.130       7.957       7.797       7.591       7.356       7.152       6.924       6.688    
        6.487       6.244       5.960       5.710       5.465       5.243       5.151       5.067       4.995       4.916    
        4.851       4.794       4.670       4.509       4.359       4.112       3.688       3.286       2.929       2.513    
        2.072       1.655       1.377       1.228       1.048      0.8379      0.6191      0.3981      0.1985       0.000    
  33    10.00       9.790       9.632       9.513       9.391       9.255       9.089       8.925       8.763       8.598    
        8.445       8.296       8.140       7.975       7.797       7.637       7.466       7.292       7.105       6.875    
        6.640       6.412       6.176       5.886       5.584       5.334       5.201       5.115       5.023       4.927    
        4.855       4.769       4.635       4.485       4.271       3.933       3.505       3.170       2.829       2.347    
        1.949       1.678       1.458       1.280       1.076      0.8544      0.5865      0.3502      0.1578       0.000    
  34    10.00       9.808       9.679       9.567       9.431       9.264       9.088       8.895       8.716       8.577    
        8.441       8.305       8.163       7.992       7.835       7.680       7.532       7.395       7.215       6.979    
        6.757       6.553       6.319       6.017       5.684       5.404       5.236       5.132       5.033       4.925    
        4.832       4.737       4.608       4.420       4.159       3.744       3.333       3.038       2.638       2.217    
        1.974       1.796       1.584       1.355       1.086      0.7749      0.4739      0.2804      0.1162       0.000    
  35    10.00       9.839       9.723       9.609       9.463       9.275       9.073       8.858       8.687       8.568    
        8.477       8.340       8.182       7.999       7.832       7.722       7.613       7.471       7.284       7.060    
        6.849       6.647       6.431       6.087       5.708       5.440       5.257       5.142       5.028       4.905    
        4.814       4.704       4.552       4.303       3.896       3.470       3.201       2.900       2.496       2.246    
        2.078       1.876       1.663       1.440       1.099      0.6588      0.3638      0.2391      0.1213       0.000    
  36    10.00       9.858       9.757       9.647       9.492       9.267       9.020       8.818       8.696       8.605    
        8.480       8.322       8.176       8.014       7.867       7.758       7.653       7.526       7.378       7.170    
        6.951       6.738       6.468       6.092       5.721       5.450       5.278       5.141       4.996       4.880    
        4.772       4.634       4.388       4.013       3.645       3.361       3.114       2.800       2.484       2.320    
        2.150       1.969       1.753       1.465       1.002      0.5544      0.3416      0.2185      0.1123       0.000    
  37    10.00       9.873       9.794       9.675       9.468       9.221       9.003       8.846       8.745       8.635    
        8.472       8.303       8.176       8.036       7.898       7.793       7.696       7.577       7.420       7.237    
        7.058       6.823       6.480       6.123       5.767       5.460       5.248       5.076       4.941       4.822    
        4.692       4.485       4.115       3.782       3.532       3.290       3.038       2.795       2.572       2.390    
        2.226       2.023       1.779       1.400      0.9176      0.5342      0.3197      0.2032      0.1019       0.000    
  38    10.00       9.892       9.796       9.666       9.451       9.196       9.011       8.894       8.789       8.657    
        8.484       8.307       8.182       8.052       7.915       7.809       7.724       7.619       7.463       7.305    
        7.138       6.860       6.465       6.076       5.714       5.411       5.177       4.985       4.855       4.743    
        4.574       4.228       3.909       3.709       3.466       3.230       3.051       2.850       2.647       2.473    
        2.280       2.004       1.694       1.284      0.8053      0.5114      0.3596      0.2240      0.1005       0.000    
  39    10.00       9.890       9.782       9.645       9.436       9.205       9.038       8.934       8.804       8.657    
        8.517       8.338       8.196       8.072       7.939       7.826       7.728       7.624       7.497       7.354    
        7.151       6.846       6.429       5.989       5.617       5.332       5.064       4.865       4.772       4.659    
        4.383       4.041       3.854       3.627       3.404       3.240       3.095       2.912       2.717       2.554    
        2.276       1.885       1.522       1.079      0.7177      0.5537      0.4121      0.2683      0.1380       0.000    
  40    10.00       9.881       9.786       9.646       9.454       9.259       9.096       8.957       8.802       8.668    
        8.562       8.386       8.206       8.080       7.957       7.827       7.719       7.636       7.524       7.343    
        7.104       6.747       6.320       5.906       5.530       5.230       4.921       4.768       4.684       4.531    
        4.284       4.042       3.790       3.560       3.407       3.268       3.131       2.961       2.781       2.569    
        2.192       1.767       1.374       1.017      0.7697      0.6008      0.4598      0.3245      0.1593       0.000    
  41    10.00       9.897       9.820       9.684       9.486       9.283       9.126       9.001       8.849       8.689    
        8.561       8.398       8.230       8.111       7.968       7.812       7.720       7.628       7.476       7.273    
        7.023       6.671       6.241       5.839       5.463       5.059       4.777       4.699       4.605       4.493    
        4.303       4.011       3.762       3.584       3.434       3.311       3.162       3.000       2.815       2.483    
        2.043       1.630       1.289       1.027      0.8126      0.6559      0.5052      0.3569      0.1879       0.000    
  42    10.00       9.923       9.838       9.706       9.534       9.340       9.162       9.033       8.894       8.715    
        8.551       8.395       8.250       8.136       7.983       7.819       7.706       7.579       7.411       7.177    
        6.886       6.499       6.122       5.720       5.229       4.876       4.738       4.675       4.596       4.478    
        4.256       4.002       3.773       3.595       3.475       3.345       3.213       3.039       2.743       2.303    
        1.920       1.613       1.318       1.021      0.8227      0.6895      0.5450      0.3714      0.2061       0.000    
  43    10.00       9.938       9.847       9.711       9.540       9.378       9.220       9.074       8.900       8.713    
        8.562       8.404       8.260       8.154       8.009       7.821       7.668       7.522       7.293       6.994    
        6.712       6.340       5.994       5.531       5.070       4.844       4.738       4.665       4.591       4.467    
        4.256       4.027       3.808       3.636       3.522       3.394       3.220       2.972       2.539       2.151    
        1.913       1.642       1.331       1.024      0.8141      0.6910      0.5797      0.4015      0.1882       0.000    
  44    10.00       9.931       9.853       9.710       9.555       9.437       9.276       9.076       8.878       8.722    
        8.570       8.410       8.284       8.170       7.999       7.794       7.617       7.443       7.172       6.877    
        6.541       6.173       5.806       5.345       5.003       4.838       4.746       4.685       4.604       4.447    
        4.234       4.051       3.859       3.701       3.584       3.406       3.175       2.820       2.383       2.128    
        1.910       1.627       1.317       1.038      0.8236      0.6928      0.5800      0.3932      0.1733       0.000    
  45    10.00       9.916       9.822       9.707       9.593       9.441       9.269       9.077       8.880       8.723    
        8.563       8.418       8.307       8.175       7.985       7.765       7.566       7.369       7.077       6.733    
        6.348       5.961       5.568       5.232       4.998       4.859       4.771       4.704       4.601       4.473    
        4.290       4.082       3.911       3.748       3.579       3.391       3.140       2.762       2.385       2.087    
        1.840       1.574       1.285       1.035      0.8491      0.7407      0.5723      0.3407      0.1553       0.000    
  46    10.00       9.899       9.800       9.708       9.578       9.403       9.236       9.078       8.883       8.714    
        8.573       8.438       8.324       8.164       7.962       7.764       7.554       7.296       6.981       6.609    
        6.160       5.777       5.465       5.212       5.035       4.912       4.802       4.712       4.630       4.488    
        4.293       4.113       3.944       3.755       3.589       3.411       3.128       2.693       2.299       2.034    
        1.802       1.548       1.277       1.058      0.9139      0.7744      0.5188      0.2550      0.1109       0.000    
  47    10.00       9.892       9.792       9.664       9.513       9.368       9.225       9.054       8.875       8.725    
        8.595       8.474       8.312       8.138       7.955       7.763       7.530       7.231       6.938       6.486    
        6.001       5.704       5.437       5.239       5.074       4.953       4.842       4.733       4.638       4.491    
        4.286       4.108       3.937       3.759       3.616       3.401       3.008       2.619       2.290       2.009    
        1.807       1.566       1.326       1.114      0.9358      0.7102      0.4267      0.2230      9.2875E-02   0.000    
  48    10.00       9.880       9.759       9.623       9.485       9.357       9.212       9.055       8.890       8.741    
        8.609       8.466       8.288       8.109       7.930       7.739       7.515       7.233       6.869       6.421    
        6.004       5.700       5.441       5.259       5.125       4.975       4.862       4.771       4.653       4.453    
        4.252       4.078       3.922       3.791       3.602       3.318       2.946       2.596       2.285       2.038    
        1.819       1.591       1.374       1.135      0.8675      0.5768      0.3646      0.2162      9.7689E-02   0.000    
  49    10.00       9.869       9.737       9.604       9.491       9.358       9.204       9.050       8.917       8.762    
        8.603       8.422       8.247       8.097       7.893       7.707       7.521       7.205       6.846       6.490    
        6.050       5.712       5.453       5.294       5.136       4.974       4.887       4.799       4.609       4.368    
        4.196       4.058       3.945       3.774       3.555       3.302       2.930       2.582       2.338       2.075    
        1.818       1.608       1.377       1.096      0.7679      0.5142      0.3646      0.2353      0.1207       0.000    
  50    10.00       9.874       9.742       9.606       9.483       9.353       9.215       9.064       8.923       8.785    
        8.589       8.401       8.240       8.038       7.832       7.689       7.512       7.268       6.912       6.560    
        6.111       5.685       5.460       5.298       5.133       5.001       4.896       4.778       4.553       4.325    
        4.183       4.069       3.937       3.759       3.557       3.316       2.940       2.583       2.345       2.109    
        1.864       1.600       1.340       1.039      0.7158      0.5261      0.3923      0.2659      0.1604       0.000    

 HEAD WILL BE SAVED ON UNIT   51 AT END OF TIME STEP  33, STRESS PERIOD    2

 DRAWDOWN WILL BE SAVED ON UNIT   52 AT END OF TIME STEP  33, STRESS PERIOD    2
1
  VOLUMETRIC BUDGET FOR ENTIRE MODEL AT END OF TIME STEP 33 IN STRESS PERIOD   2
  ------------------------------------------------------------------------------

     CUMULATIVE VOLUMES      L**3       RATES FOR THIS TIME STEP      L**3/T
     ------------------                 ------------------------

           IN:                                      IN:
           ---                                      ---
             STORAGE =       16465.2871               STORAGE =         495.1304
       CONSTANT HEAD =       12697.1914         CONSTANT HEAD =         377.1135
               WELLS =           0.0000                 WELLS =           0.0000

            TOTAL IN =       29162.4785              TOTAL IN =         872.2440

          OUT:                                     OUT:
          ----                                     ----
             STORAGE =       1.1143E-02               STORAGE =           0.0000
       CONSTANT HEAD =       12662.4678         CONSTANT HEAD =         372.2436
               WELLS =       16500.0000                 WELLS =         500.0000

           TOTAL OUT =       29162.4785             TOTAL OUT =         872.2436

            IN - OUT =           0.0000              IN - OUT =       3.6621E-04

 PERCENT DISCREPANCY =           0.00     PERCENT DISCREPANCY =           0.00






          TIME SUMMARY AT END OF TIME STEP  33 IN STRESS PERIOD    2
                    SECONDS     MINUTES      HOURS       DAYS        YEARS
                    -----------------------------------------------------------
   TIME STEP LENGTH  86400.      1440.0      24.000      1.0000     2.73785E-03
 STRESS PERIOD TIME 2.85120E+06  47520.      792.00      33.000     9.03491E-02
         TOTAL TIME 2.93760E+06  48960.      816.00      34.000     9.30869E-02
1
 
 SOLVING FOR HEAD 

 OUTPUT CONTROL FOR STRESS PERIOD    2   TIME STEP  34
    SAVE HEAD FOR ALL LAYERS
    SAVE DRAWDOWN FOR ALL LAYERS
    SAVE BUDGET
    PRINT HEAD FOR ALL LAYERS
    PRINT BUDGET
 UBDSV1 SAVING "         STORAGE" ON UNIT  53 AT TIME STEP 34, STRESS PERIOD   2
 UBDSV2 SAVING "   CONSTANT HEAD" ON UNIT  53 AT TIME STEP 34, STRESS PERIOD   2
 UBDSV1 SAVING "FLOW RIGHT FACE " ON UNIT  53 AT TIME STEP 34, STRESS PERIOD   2
 UBDSV1 SAVING "FLOW FRONT FACE " ON UNIT  53 AT TIME STEP 34, STRESS PERIOD   2
1
              HEAD IN LAYER   1 AT END OF TIME STEP  34 IN STRESS PERIOD    2
  ---------------------------------------------------------------------------

            1           2           3           4           5           6           7           8           9          10
           11          12          13          14          15          16          17          18          19          20
           21          22          23          24          25          26          27          28          29          30
           31          32          33          34          35          36          37          38          39          40
           41          42          43          44          45          46          47          48          49          50
 ........................................................................................................................
   1    10.00       9.953       9.906       9.851       9.807       9.771       9.722       9.654       9.579       9.511    
        9.360       9.172       9.032       8.877       8.711       8.544       8.389       8.210       7.971       7.734    
        7.572       7.386       7.141       6.893       6.672       6.479       6.203       5.952       5.775       5.588    
        5.426       5.320       5.204       5.072       4.945       4.787       4.617       4.388       4.125       3.838    
        3.470       3.095       2.604       2.070       1.669       1.380       1.165      0.9184      0.5391       0.000    
   2    10.00       9.948       9.898       9.851       9.814       9.779       9.724       9.655       9.587       9.495    
        9.347       9.178       9.022       8.880       8.727       8.555       8.371       8.187       7.965       7.725    
        7.548       7.396       7.135       6.867       6.670       6.452       6.187       5.947       5.743       5.567    
        5.430       5.332       5.234       5.092       4.943       4.787       4.591       4.378       4.123       3.797    
        3.451       3.132       2.617       2.086       1.730       1.473       1.224      0.9485      0.5725       0.000    
   3    10.00       9.940       9.898       9.865       9.830       9.793       9.734       9.652       9.569       9.469    
        9.336       9.186       9.035       8.893       8.711       8.496       8.316       8.157       7.953       7.742    
        7.561       7.345       7.089       6.852       6.638       6.394       6.141       5.905       5.695       5.562    
        5.449       5.354       5.255       5.099       4.943       4.777       4.584       4.345       4.061       3.811    
        3.504       3.069       2.566       2.185       1.881       1.581       1.275      0.9614      0.5426       0.000    
   4    10.00       9.940       9.903       9.874       9.849       9.810       9.743       9.648       9.550       9.450    
        9.323       9.189       9.038       8.859       8.637       8.437       8.309       8.130       7.932       7.768    
        7.521       7.248       7.023       6.813       6.606       6.315       6.036       5.847       5.702       5.587    
        5.483       5.384       5.277       5.096       4.904       4.754       4.550       4.303       4.059       3.838    
        3.490       3.010       2.630       2.308       1.982       1.641       1.272      0.9051      0.4637       0.000    
   5    10.00       9.945       9.910       9.882       9.860       9.820       9.748       9.640       9.531       9.432    
        9.324       9.186       8.993       8.784       8.596       8.438       8.279       8.112       7.927       7.697    
        7.412       7.186       6.999       6.786       6.523       6.222       5.991       5.855       5.735       5.619    
        5.501       5.379       5.258       5.085       4.889       4.707       4.524       4.328       4.106       3.814    
        3.419       3.052       2.726       2.400       2.044       1.646       1.183      0.7625      0.3947       0.000    
   6    10.00       9.954       9.921       9.892       9.862       9.818       9.742       9.626       9.531       9.424    
        9.304       9.134       8.923       8.750       8.577       8.397       8.235       8.087       7.881       7.621    
        7.368       7.152       6.962       6.700       6.415       6.186       5.997       5.869       5.738       5.619    
        5.514       5.380       5.228       5.050       4.860       4.703       4.543       4.364       4.129       3.814    
        3.467       3.111       2.777       2.448       2.061       1.580       1.082      0.7172      0.3692       0.000    
   7    10.00       9.960       9.931       9.901       9.869       9.816       9.714       9.603       9.505       9.374    
        9.250       9.070       8.880       8.702       8.525       8.344       8.186       8.051       7.816       7.539    
        7.311       7.094       6.881       6.628       6.384       6.174       6.008       5.859       5.720       5.623    
        5.516       5.370       5.208       5.026       4.861       4.721       4.573       4.388       4.146       3.858    
        3.512       3.145       2.798       2.434       2.052       1.547       1.035      0.6833      0.3233       0.000    
   8    10.00       9.967       9.941       9.909       9.871       9.786       9.663       9.557       9.435       9.310    
        9.175       8.991       8.830       8.650       8.453       8.278       8.141       7.981       7.761       7.493    
        7.230       7.029       6.853       6.594       6.342       6.155       5.968       5.808       5.710       5.618    
        5.491       5.346       5.208       5.046       4.870       4.724       4.610       4.468       4.228       3.895    
        3.515       3.189       2.863       2.439       2.012       1.448      0.9587      0.6694      0.3098       0.000    
   9    10.00       9.974       9.945       9.908       9.846       9.734       9.604       9.481       9.374       9.246    
        9.086       8.924       8.764       8.593       8.390       8.226       8.099       7.911       7.695       7.425    
        7.195       6.997       6.752       6.490       6.277       6.110       5.921       5.783       5.688       5.584    
        5.468       5.336       5.205       5.063       4.912       4.769       4.650       4.522       4.274       3.913    
        3.562       3.269       2.925       2.515       1.883       1.247      0.9135      0.5662      0.2160       0.000    
  10    10.00       9.974       9.944       9.893       9.798       9.665       9.521       9.426       9.324       9.174    
        9.035       8.874       8.716       8.532       8.346       8.199       8.029       7.835       7.608       7.390    
        7.166       6.867       6.616       6.408       6.225       6.075       5.902       5.758       5.664       5.575    
        5.451       5.309       5.191       5.059       4.925       4.826       4.706       4.557       4.273       3.913    
        3.637       3.378       2.982       2.364       1.632       1.171      0.8294      0.5064      0.2526       0.000    
  11    10.00       9.974       9.934       9.856       9.748       9.601       9.474       9.394       9.274       9.146    
        9.013       8.845       8.656       8.460       8.304       8.147       7.989       7.782       7.562       7.347    
        7.034       6.746       6.543       6.355       6.178       6.012       5.849       5.735       5.654       5.567    
        5.426       5.292       5.192       5.073       4.960       4.849       4.714       4.552       4.284       3.994    
        3.702       3.364       2.934       2.252       1.566       1.101      0.7775      0.5897      0.3257       0.000    
  12    10.00       9.972       9.916       9.816       9.676       9.530       9.430       9.350       9.246       9.131    
        8.985       8.808       8.619       8.444       8.285       8.112       7.932       7.721       7.500       7.212    
        6.904       6.683       6.483       6.292       6.098       5.933       5.816       5.727       5.625       5.516    
        5.391       5.288       5.199       5.103       5.002       4.891       4.744       4.545       4.295       4.033    
        3.719       3.351       2.761       1.995       1.412       1.085      0.8636      0.6259      0.3567       0.000    
  13    10.00       9.963       9.877       9.740       9.595       9.470       9.389       9.319       9.231       9.120    
        8.968       8.784       8.611       8.471       8.287       8.074       7.864       7.636       7.391       7.111    
        6.841       6.603       6.388       6.190       6.005       5.882       5.803       5.684       5.554       5.456    
        5.374       5.291       5.209       5.127       5.031       4.932       4.797       4.569       4.311       3.999    
        3.638       3.175       2.492       1.871       1.447       1.167      0.9081      0.6276      0.3100       0.000    
  14    10.00       9.933       9.810       9.659       9.525       9.428       9.374       9.310       9.225       9.105    
        8.937       8.781       8.638       8.493       8.288       8.038       7.812       7.554       7.281       6.990    
        6.728       6.491       6.277       6.083       5.935       5.850       5.756       5.614       5.502       5.426    
        5.365       5.287       5.217       5.138       5.051       4.970       4.813       4.579       4.304       3.916    
        3.491       2.945       2.419       1.964       1.540       1.212      0.9243      0.6282      0.2797       0.000    
  15    10.00       9.876       9.739       9.605       9.498       9.423       9.364       9.304       9.221       9.109    
        8.962       8.809       8.670       8.468       8.231       7.993       7.740       7.473       7.148       6.837    
        6.593       6.364       6.161       6.009       5.896       5.804       5.693       5.559       5.466       5.409    
        5.342       5.277       5.222       5.149       5.065       4.978       4.812       4.588       4.244       3.824    
        3.383       2.890       2.462       1.992       1.635       1.284      0.9357      0.6221      0.2551       0.000    
  16    10.00       9.856       9.708       9.586       9.494       9.426       9.365       9.310       9.230       9.115    
        8.977       8.832       8.663       8.411       8.153       7.956       7.709       7.352       6.980       6.688    
        6.434       6.240       6.075       5.943       5.820       5.735       5.614       5.503       5.429       5.365    
        5.315       5.270       5.210       5.144       5.070       4.970       4.817       4.547       4.170       3.786    
        3.407       2.930       2.447       2.032       1.695       1.326      0.9327      0.5574      0.2097       0.000    
  17    10.00       9.837       9.689       9.591       9.509       9.440       9.380       9.319       9.232       9.125    
        8.998       8.818       8.589       8.319       8.102       7.916       7.618       7.220       6.839       6.555    
        6.346       6.130       5.946       5.810       5.706       5.603       5.495       5.423       5.360       5.319    
        5.295       5.254       5.191       5.124       5.049       4.942       4.762       4.527       4.219       3.814    
        3.378       2.874       2.426       2.059       1.714       1.336      0.9523      0.5806      0.2454       0.000    
  18    10.00       9.828       9.689       9.604       9.531       9.464       9.405       9.331       9.246       9.132    
        8.980       8.769       8.516       8.286       8.074       7.805       7.459       7.095       6.759       6.478    
        6.223       5.944       5.783       5.669       5.578       5.462       5.391       5.328       5.287       5.279    
        5.262       5.225       5.162       5.087       5.009       4.894       4.719       4.525       4.258       3.882    
        3.314       2.776       2.411       2.061       1.767       1.369      0.9465      0.5690      0.2450       0.000    
  19    10.00       9.836       9.720       9.633       9.555       9.488       9.419       9.350       9.272       9.140    
        8.962       8.737       8.486       8.232       7.954       7.662       7.341       6.989       6.650       6.352    
        6.055       5.808       5.678       5.588       5.463       5.358       5.298       5.243       5.228       5.222    
        5.215       5.186       5.115       5.043       4.975       4.884       4.716       4.502       4.231       3.789    
        3.218       2.760       2.396       2.052       1.722       1.312      0.9087      0.5652      0.2663       0.000    
  20    10.00       9.845       9.746       9.670       9.595       9.516       9.434       9.360       9.281       9.148    
        8.955       8.722       8.431       8.101       7.782       7.543       7.219       6.839       6.539       6.242    
        5.976       5.770       5.612       5.476       5.318       5.244       5.202       5.173       5.172       5.168    
        5.166       5.128       5.064       5.016       4.954       4.858       4.667       4.449       4.139       3.645    
        3.152       2.786       2.364       1.972       1.613       1.211      0.9111      0.5611      0.2487       0.000    
  21    10.00       9.868       9.779       9.702       9.620       9.544       9.454       9.374       9.289       9.140    
        8.932       8.649       8.288       7.903       7.603       7.383       7.078       6.798       6.515       6.193    
        5.939       5.712       5.515       5.261       5.128       5.090       5.032       5.063       5.093       5.089    
        5.083       5.047       5.019       4.986       4.929       4.795       4.602       4.411       3.960       3.447    
        3.081       2.687       2.258       1.894       1.514       1.162      0.8247      0.4943      0.2482       0.000    
  22    10.00       9.896       9.803       9.720       9.640       9.569       9.467       9.363       9.265       9.111    
        8.859       8.504       8.096       7.733       7.474       7.243       7.008       6.805       6.495       6.180    
        5.913       5.591       5.238       4.970       4.870       4.773       4.785       4.883       4.923       4.944    
        4.960       4.952       4.957       4.950       4.894       4.748       4.548       4.198       3.688       3.361    
        2.967       2.545       2.160       1.810       1.487       1.069      0.7156      0.4739      0.2663       0.000    
  23    10.00       9.898       9.808       9.733       9.649       9.555       9.440       9.346       9.260       9.067    
        8.758       8.376       8.004       7.686       7.420       7.224       7.003       6.736       6.439       6.187    
        5.818       5.345       4.967       4.692       4.291       4.293       4.506       4.629       4.717       4.800    
        4.838       4.863       4.889       4.898       4.840       4.688       4.394       3.988       3.571       3.172    
        2.799       2.450       2.081       1.804       1.396      0.9718      0.6960      0.4556      0.2365       0.000    
  24    10.00       9.920       9.819       9.720       9.623       9.515       9.412       9.332       9.235       9.008    
        8.656       8.296       7.987       7.710       7.457       7.201       6.929       6.686       6.450       6.154    
        5.713       5.243       4.793       3.968       3.084       3.602       4.099       4.390       4.551       4.683    
        4.752       4.794       4.831       4.825       4.762       4.569       4.239       3.901       3.440       3.016    
        2.725       2.389       2.040       1.687       1.249      0.9015      0.6695      0.4268      0.1883       0.000    
  25    10.00       9.913       9.796       9.675       9.561       9.464       9.385       9.305       9.185       8.950    
        8.581       8.245       8.008       7.751       7.458       7.192       6.937       6.725       6.507       6.128    
        5.622       5.158       4.438       3.095      0.2806       3.000       3.785       4.242       4.482       4.619    
        4.700       4.751       4.780       4.759       4.683       4.473       4.122       3.729       3.355       2.992    
        2.659       2.295       1.898       1.526       1.111      0.8279      0.6669      0.4149      0.1538       0.000    
  26    10.00       9.891       9.740       9.605       9.513       9.435       9.356       9.258       9.117       8.825    
        8.481       8.246       8.019       7.762       7.489       7.233       6.995       6.786       6.513       6.110    
        5.665       5.154       4.525       3.801       3.134       3.491       3.959       4.280       4.476       4.601    
        4.677       4.728       4.738       4.703       4.601       4.356       3.973       3.656       3.353       2.962    
        2.614       2.203       1.748       1.349       1.010      0.8105      0.6309      0.3699      0.1574       0.000    
  27    10.00       9.867       9.706       9.580       9.503       9.400       9.297       9.171       8.982       8.704    
        8.460       8.252       8.021       7.770       7.501       7.300       7.137       6.857       6.513       6.102    
        5.723       5.356       4.853       4.379       4.005       4.066       4.246       4.403       4.527       4.614    
        4.690       4.727       4.719       4.660       4.526       4.250       3.948       3.669       3.318       2.950    
        2.590       2.095       1.574       1.200      0.9642      0.7974      0.6001      0.3912      0.1886       0.000    
  28    10.00       9.849       9.732       9.590       9.458       9.332       9.217       9.069       8.880       8.663    
        8.462       8.275       8.046       7.766       7.528       7.367       7.185       6.876       6.475       6.112    
        5.846       5.573       5.181       4.816       4.581       4.504       4.500       4.547       4.624       4.691    
        4.733       4.737       4.711       4.627       4.455       4.208       3.968       3.643       3.279       2.910    
        2.472       2.006       1.490       1.119      0.9537      0.7943      0.6187      0.4085      0.1894       0.000    
  29    10.00       9.854       9.708       9.557       9.399       9.277       9.148       8.983       8.823       8.651    
        8.471       8.284       8.060       7.824       7.621       7.431       7.189       6.843       6.478       6.197    
        5.973       5.735       5.416       5.093       4.901       4.796       4.730       4.725       4.756       4.771    
        4.767       4.748       4.701       4.591       4.400       4.192       3.972       3.671       3.268       2.801    
        2.402       1.907       1.393       1.102      0.9568      0.8000      0.6140      0.3991      0.1984       0.000    
  30    10.00       9.833       9.685       9.504       9.344       9.231       9.092       8.947       8.823       8.668    
        8.483       8.280       8.075       7.887       7.706       7.492       7.181       6.859       6.569       6.306    
        6.115       5.882       5.594       5.314       5.083       4.987       4.921       4.890       4.861       4.832    
        4.797       4.760       4.690       4.551       4.381       4.219       4.000       3.612       3.117       2.646    
        2.244       1.792       1.401       1.132      0.9786      0.8019      0.6032      0.4184      0.2052       0.000    
  31    10.00       9.811       9.639       9.466       9.322       9.205       9.073       8.944       8.820       8.668    
        8.483       8.278       8.101       7.944       7.773       7.530       7.223       6.947       6.721       6.491    
        6.289       6.029       5.744       5.509       5.273       5.116       5.046       4.980       4.930       4.874    
        4.827       4.767       4.673       4.540       4.379       4.200       3.857       3.428       3.020       2.562    
        2.184       1.735       1.355       1.161      0.9969      0.8305      0.6237      0.4189      0.1985       0.000    
  32    10.00       9.796       9.612       9.463       9.341       9.224       9.086       8.939       8.788       8.643    
        8.460       8.282       8.123       7.949       7.789       7.581       7.345       7.140       6.910       6.673    
        6.471       6.227       5.942       5.691       5.445       5.223       5.132       5.048       4.976       4.898    
        4.834       4.777       4.654       4.495       4.347       4.102       3.681       3.282       2.926       2.511    
        2.071       1.654       1.377       1.227       1.048      0.8377      0.6190      0.3980      0.1985       0.000    
  33    10.00       9.789       9.631       9.512       9.390       9.253       9.087       8.922       8.759       8.594    
        8.440       8.291       8.133       7.967       7.789       7.628       7.455       7.281       7.093       6.861    
        6.625       6.397       6.160       5.869       5.566       5.316       5.183       5.097       5.006       4.911    
        4.839       4.754       4.621       4.472       4.260       3.924       3.499       3.165       2.826       2.345    
        1.948       1.678       1.457       1.280       1.075      0.8543      0.5864      0.3502      0.1577       0.000    
  34    10.00       9.808       9.678       9.566       9.430       9.262       9.086       8.893       8.712       8.573    
        8.436       8.299       8.157       7.985       7.827       7.672       7.523       7.384       7.204       6.967    
        6.744       6.539       6.304       6.001       5.668       5.387       5.219       5.116       5.017       4.910    
        4.817       4.723       4.595       4.408       4.149       3.737       3.328       3.035       2.636       2.216    
        1.973       1.796       1.584       1.355       1.086      0.7747      0.4738      0.2804      0.1162       0.000    
  35    10.00       9.839       9.723       9.608       9.462       9.273       9.071       8.855       8.684       8.564    
        8.473       8.335       8.176       7.993       7.825       7.714       7.605       7.462       7.274       7.049    
        6.837       6.634       6.417       6.072       5.693       5.424       5.241       5.127       5.013       4.891    
        4.800       4.691       4.540       4.292       3.888       3.465       3.197       2.897       2.494       2.245    
        2.077       1.875       1.662       1.439       1.099      0.6586      0.3637      0.2390      0.1213       0.000    
  36    10.00       9.858       9.756       9.647       9.491       9.265       9.018       8.815       8.693       8.601    
        8.476       8.317       8.170       8.008       7.860       7.750       7.646       7.517       7.369       7.160    
        6.940       6.726       6.455       6.079       5.708       5.436       5.264       5.128       4.983       4.866    
        4.759       4.622       4.377       4.006       3.640       3.357       3.111       2.798       2.482       2.319    
        2.149       1.968       1.753       1.465       1.002      0.5543      0.3415      0.2185      0.1123       0.000    
  37    10.00       9.873       9.794       9.675       9.467       9.219       9.001       8.843       8.742       8.631    
        8.468       8.298       8.171       8.030       7.892       7.786       7.689       7.570       7.412       7.228    
        7.049       6.813       6.469       6.112       5.755       5.448       5.236       5.064       4.929       4.811    
        4.681       4.475       4.107       3.776       3.528       3.286       3.036       2.793       2.570       2.389    
        2.225       2.022       1.778       1.400      0.9174      0.5341      0.3197      0.2031      0.1019       0.000    
  38    10.00       9.891       9.796       9.666       9.450       9.194       9.009       8.892       8.786       8.654    
        8.480       8.303       8.177       8.047       7.910       7.803       7.717       7.613       7.456       7.297    
        7.130       6.851       6.456       6.066       5.705       5.401       5.167       4.976       4.847       4.734    
        4.565       4.222       3.904       3.705       3.463       3.227       3.049       2.848       2.645       2.471    
        2.279       2.003       1.693       1.284      0.8052      0.5113      0.3596      0.2240      0.1005       0.000    
  39    10.00       9.890       9.781       9.645       9.435       9.204       9.037       8.932       8.801       8.655    
        8.513       8.334       8.191       8.067       7.934       7.820       7.722       7.618       7.491       7.347    
        7.144       6.839       6.422       5.982       5.610       5.324       5.057       4.858       4.765       4.652    
        4.378       4.037       3.850       3.624       3.402       3.238       3.093       2.911       2.715       2.553    
        2.275       1.884       1.521       1.079      0.7176      0.5537      0.4121      0.2683      0.1380       0.000    
  40    10.00       9.881       9.785       9.645       9.453       9.258       9.094       8.956       8.800       8.666    
        8.559       8.383       8.202       8.076       7.953       7.822       7.713       7.631       7.518       7.338    
        7.098       6.742       6.315       5.901       5.525       5.225       4.916       4.763       4.680       4.526    
        4.280       4.038       3.787       3.558       3.405       3.266       3.129       2.960       2.780       2.568    
        2.191       1.766       1.374       1.017      0.7696      0.6008      0.4598      0.3245      0.1593       0.000    
  41    10.00       9.897       9.820       9.684       9.485       9.282       9.125       9.000       8.847       8.687    
        8.559       8.396       8.227       8.108       7.964       7.807       7.715       7.624       7.472       7.269    
        7.019       6.667       6.238       5.836       5.460       5.055       4.774       4.696       4.601       4.490    
        4.300       4.009       3.760       3.582       3.432       3.310       3.160       2.999       2.814       2.482    
        2.042       1.629       1.289       1.027      0.8125      0.6558      0.5052      0.3568      0.1879       0.000    
  42    10.00       9.922       9.837       9.706       9.534       9.339       9.161       9.032       8.893       8.713    
        8.549       8.392       8.248       8.133       7.980       7.816       7.702       7.575       7.407       7.174    
        6.883       6.496       6.120       5.718       5.226       4.874       4.736       4.673       4.594       4.476    
        4.253       4.000       3.771       3.593       3.474       3.343       3.211       3.038       2.742       2.302    
        1.920       1.613       1.317       1.021      0.8226      0.6895      0.5450      0.3714      0.2061       0.000    
  43    10.00       9.938       9.847       9.711       9.540       9.377       9.219       9.073       8.899       8.712    
        8.560       8.402       8.258       8.151       8.006       7.818       7.665       7.519       7.290       6.992    
        6.710       6.338       5.993       5.529       5.068       4.842       4.736       4.663       4.589       4.465    
        4.254       4.025       3.806       3.634       3.521       3.393       3.219       2.971       2.539       2.151    
        1.913       1.642       1.331       1.024      0.8141      0.6910      0.5797      0.4015      0.1881       0.000    
  44    10.00       9.931       9.852       9.710       9.555       9.437       9.276       9.075       8.877       8.721    
        8.569       8.408       8.282       8.169       7.997       7.792       7.615       7.441       7.170       6.876    
        6.540       6.172       5.805       5.344       5.002       4.836       4.745       4.683       4.602       4.445    
        4.232       4.049       3.858       3.699       3.583       3.405       3.174       2.819       2.382       2.127    
        1.910       1.626       1.317       1.038      0.8236      0.6927      0.5799      0.3932      0.1732       0.000    
  45    10.00       9.916       9.822       9.707       9.593       9.441       9.269       9.077       8.880       8.722    
        8.563       8.417       8.306       8.173       7.984       7.763       7.565       7.368       7.076       6.732    
        6.348       5.960       5.567       5.231       4.997       4.858       4.769       4.703       4.599       4.472    
        4.288       4.081       3.910       3.746       3.578       3.390       3.139       2.761       2.385       2.087    
        1.840       1.574       1.285       1.035      0.8491      0.7406      0.5723      0.3406      0.1553       0.000    
  46    10.00       9.899       9.800       9.708       9.578       9.403       9.236       9.078       8.883       8.714    
        8.572       8.437       8.324       8.163       7.961       7.763       7.553       7.295       6.981       6.608    
        6.159       5.776       5.465       5.211       5.034       4.910       4.801       4.711       4.629       4.487    
        4.292       4.112       3.943       3.754       3.588       3.410       3.127       2.692       2.298       2.034    
        1.802       1.547       1.277       1.058      0.9139      0.7743      0.5188      0.2550      0.1109       0.000    
  47    10.00       9.892       9.792       9.664       9.512       9.368       9.225       9.054       8.875       8.724    
        8.594       8.473       8.311       8.137       7.955       7.763       7.530       7.230       6.937       6.485    
        6.000       5.703       5.436       5.238       5.073       4.952       4.841       4.732       4.637       4.490    
        4.285       4.107       3.936       3.758       3.615       3.400       3.008       2.619       2.290       2.009    
        1.806       1.566       1.326       1.114      0.9357      0.7102      0.4267      0.2230      9.2872E-02   0.000    
  48    10.00       9.880       9.759       9.623       9.485       9.357       9.212       9.055       8.890       8.741    
        8.609       8.465       8.287       8.108       7.930       7.739       7.515       7.233       6.869       6.421    
        6.004       5.700       5.440       5.258       5.124       4.974       4.861       4.770       4.653       4.452    
        4.251       4.078       3.921       3.790       3.602       3.318       2.946       2.596       2.285       2.038    
        1.819       1.591       1.374       1.135      0.8675      0.5768      0.3646      0.2162      9.7687E-02   0.000    
  49    10.00       9.869       9.737       9.604       9.491       9.358       9.204       9.050       8.916       8.762    
        8.603       8.422       8.247       8.097       7.893       7.707       7.520       7.205       6.846       6.490    
        6.050       5.711       5.453       5.294       5.135       4.973       4.886       4.798       4.608       4.367    
        4.196       4.057       3.945       3.773       3.555       3.302       2.930       2.582       2.338       2.075    
        1.818       1.608       1.377       1.096      0.7679      0.5142      0.3646      0.2353      0.1207       0.000    
  50    10.00       9.874       9.742       9.606       9.483       9.353       9.215       9.063       8.923       8.785    
        8.589       8.400       8.240       8.038       7.831       7.689       7.512       7.267       6.912       6.560    
        6.111       5.684       5.460       5.298       5.132       5.001       4.895       4.777       4.552       4.324    
        4.183       4.069       3.937       3.759       3.557       3.316       2.940       2.583       2.345       2.109    
        1.864       1.600       1.340       1.039      0.7158      0.5261      0.3923      0.2659      0.1604       0.000    

 HEAD WILL BE SAVED ON UNIT   51 AT END OF TIME STEP  34, STRESS PERIOD    2

 DRAWDOWN WILL BE SAVED ON UNIT   52 AT END OF TIME STEP  34, STRESS PERIOD    2
1
  VOLUMETRIC BUDGET FOR ENTIRE MODEL AT END OF TIME STEP 34 IN STRESS PERIOD   2
  ------------------------------------------------------------------------------

     CUMULATIVE VOLUMES      L**3       RATES FOR THIS TIME STEP      L**3/T
     ------------------                 ------------------------

           IN:                                      IN:
           ---                                      ---
             STORAGE =       16959.8711               STORAGE =         494.5846
       CONSTANT HEAD =       13074.8125         CONSTANT HEAD =         377.6208
               WELLS =           0.0000                 WELLS =           0.0000

            TOTAL IN =       30034.6836              TOTAL IN =         872.2053

          OUT:                                     OUT:
          ----                                     ----
             STORAGE =       1.1143E-02               STORAGE =           0.0000
       CONSTANT HEAD =       13034.6729         CONSTANT HEAD =         372.2052
               WELLS =       17000.0000                 WELLS =         500.0000

           TOTAL OUT =       30034.6836             TOTAL OUT =         872.2052

            IN - OUT =           0.0000              IN - OUT =       1.2207E-04

 PERCENT DISCREPANCY =           0.00     PERCENT DISCREPANCY =           0.00






          TIME SUMMARY AT END OF TIME STEP  34 IN STRESS PERIOD    2
                    SECONDS     MINUTES      HOURS       DAYS        YEARS
                    -----------------------------------------------------------
   TIME STEP LENGTH  86400.      1440.0      24.000      1.0000     2.73785E-03
 STRESS PERIOD TIME 2.93760E+06  48960.      816.00      34.000     9.30869E-02
         TOTAL TIME 3.02400E+06  50400.      840.00      35.000     9.58248E-02
1
 
 SOLVING FOR HEAD 

 OUTPUT CONTROL FOR STRESS PERIOD    2   TIME STEP  35
    SAVE HEAD FOR ALL LAYERS
    SAVE DRAWDOWN FOR ALL LAYERS
    SAVE BUDGET
    PRINT HEAD FOR ALL LAYERS
    PRINT BUDGET
 UBDSV1 SAVING "         STORAGE" ON UNIT  53 AT TIME STEP 35, STRESS PERIOD   2
 UBDSV2 SAVING "   CONSTANT HEAD" ON UNIT  53 AT TIME STEP 35, STRESS PERIOD   2
 UBDSV1 SAVING "FLOW RIGHT FACE " ON UNIT  53 AT TIME STEP 35, STRESS PERIOD   2
 UBDSV1 SAVING "FLOW FRONT FACE " ON UNIT  53 AT TIME STEP 35, STRESS PERIOD   2
1
              HEAD IN LAYER   1 AT END OF TIME STEP  35 IN STRESS PERIOD    2
  ---------------------------------------------------------------------------

            1           2           3           4           5           6           7           8           9          10
           11          12          13          14          15          16          17          18          19          20
           21          22          23          24          25          26          27          28          29          30
           31          32          33          34          35          36          37          38          39          40
           41          42          43          44          45          46          47          48          49          50
 ........................................................................................................................
   1    10.00       9.953       9.906       9.851       9.807       9.770       9.721       9.653       9.579       9.511    
        9.360       9.171       9.032       8.876       8.711       8.543       8.388       8.210       7.970       7.733    
        7.571       7.385       7.140       6.892       6.670       6.477       6.201       5.950       5.772       5.585    
        5.424       5.318       5.202       5.070       4.943       4.785       4.615       4.386       4.124       3.837    
        3.469       3.095       2.604       2.070       1.669       1.380       1.165      0.9183      0.5390       0.000    
   2    10.00       9.948       9.898       9.851       9.814       9.779       9.724       9.655       9.587       9.494    
        9.347       9.178       9.021       8.880       8.727       8.554       8.370       8.186       7.964       7.724    
        7.547       7.395       7.134       6.866       6.668       6.450       6.184       5.944       5.741       5.564    
        5.427       5.329       5.231       5.089       4.941       4.785       4.590       4.376       4.122       3.795    
        3.450       3.132       2.617       2.086       1.730       1.473       1.224      0.9485      0.5725       0.000    
   3    10.00       9.940       9.898       9.865       9.830       9.793       9.734       9.652       9.569       9.469    
        9.335       9.186       9.035       8.892       8.710       8.495       8.315       8.156       7.952       7.741    
        7.560       7.343       7.087       6.850       6.636       6.392       6.139       5.902       5.692       5.559    
        5.446       5.351       5.252       5.097       4.941       4.775       4.582       4.343       4.060       3.809    
        3.503       3.068       2.566       2.184       1.881       1.581       1.275      0.9613      0.5425       0.000    
   4    10.00       9.940       9.903       9.873       9.849       9.810       9.742       9.647       9.550       9.450    
        9.323       9.188       9.038       8.859       8.636       8.436       8.307       8.129       7.931       7.767    
        7.519       7.246       7.021       6.811       6.604       6.313       6.032       5.844       5.698       5.583    
        5.480       5.381       5.274       5.094       4.901       4.751       4.548       4.301       4.058       3.837    
        3.489       3.009       2.630       2.308       1.981       1.641       1.272      0.9051      0.4637       0.000    
   5    10.00       9.945       9.910       9.882       9.860       9.819       9.748       9.640       9.531       9.431    
        9.323       9.185       8.992       8.783       8.595       8.437       8.277       8.111       7.926       7.695    
        7.410       7.184       6.997       6.784       6.520       6.219       5.987       5.852       5.732       5.616    
        5.497       5.376       5.254       5.082       4.886       4.704       4.522       4.326       4.104       3.812    
        3.418       3.051       2.725       2.400       2.043       1.646       1.183      0.7624      0.3947       0.000    
   6    10.00       9.954       9.921       9.892       9.862       9.818       9.742       9.626       9.531       9.424    
        9.304       9.133       8.922       8.749       8.576       8.396       8.234       8.085       7.879       7.619    
        7.366       7.149       6.958       6.697       6.411       6.182       5.993       5.865       5.734       5.615    
        5.510       5.377       5.224       5.046       4.856       4.700       4.540       4.361       4.127       3.812    
        3.465       3.110       2.776       2.447       2.060       1.580       1.081      0.7171      0.3691       0.000    
   7    10.00       9.960       9.931       9.901       9.869       9.816       9.714       9.602       9.504       9.373    
        9.250       9.069       8.879       8.701       8.523       8.343       8.184       8.049       7.813       7.536    
        7.308       7.090       6.877       6.624       6.380       6.169       6.003       5.854       5.715       5.618    
        5.511       5.366       5.203       5.022       4.857       4.718       4.570       4.385       4.143       3.856    
        3.510       3.144       2.797       2.434       2.051       1.547       1.035      0.6832      0.3233       0.000    
   8    10.00       9.967       9.941       9.909       9.871       9.786       9.663       9.557       9.434       9.310    
        9.174       8.990       8.829       8.649       8.451       8.276       8.139       7.978       7.758       7.489    
        7.226       7.025       6.848       6.589       6.337       6.149       5.962       5.802       5.704       5.612    
        5.485       5.340       5.202       5.041       4.865       4.720       4.606       4.464       4.225       3.893    
        3.514       3.187       2.862       2.438       2.011       1.448      0.9586      0.6693      0.3097       0.000    
   9    10.00       9.974       9.945       9.908       9.846       9.734       9.603       9.480       9.373       9.245    
        9.085       8.922       8.762       8.591       8.388       8.223       8.096       7.908       7.691       7.420    
        7.190       6.992       6.746       6.483       6.269       6.103       5.914       5.776       5.681       5.577    
        5.461       5.329       5.198       5.057       4.906       4.764       4.646       4.518       4.271       3.910    
        3.560       3.268       2.924       2.514       1.883       1.247      0.9134      0.5661      0.2160       0.000    
  10    10.00       9.974       9.944       9.893       9.797       9.665       9.521       9.425       9.324       9.173    
        9.034       8.873       8.714       8.530       8.344       8.195       8.025       7.831       7.604       7.384    
        7.160       6.860       6.608       6.400       6.217       6.067       5.893       5.750       5.656       5.567    
        5.443       5.301       5.183       5.052       4.918       4.820       4.701       4.552       4.269       3.910    
        3.634       3.376       2.981       2.363       1.632       1.171      0.8292      0.5063      0.2525       0.000    
  11    10.00       9.974       9.934       9.856       9.748       9.600       9.473       9.393       9.273       9.145    
        9.011       8.843       8.654       8.457       8.301       8.143       7.985       7.777       7.557       7.341    
        7.027       6.738       6.534       6.345       6.168       6.003       5.839       5.725       5.645       5.557    
        5.417       5.283       5.184       5.065       4.953       4.843       4.708       4.547       4.280       3.991    
        3.699       3.362       2.932       2.251       1.566       1.101      0.7774      0.5896      0.3256       0.000    
  12    10.00       9.972       9.916       9.816       9.676       9.530       9.429       9.349       9.245       9.129    
        8.983       8.805       8.616       8.441       8.282       8.108       7.927       7.716       7.493       7.204    
        6.895       6.674       6.473       6.282       6.087       5.922       5.805       5.716       5.615       5.505    
        5.381       5.279       5.190       5.094       4.994       4.883       4.737       4.539       4.291       4.029    
        3.716       3.349       2.760       1.994       1.412       1.085      0.8634      0.6258      0.3567       0.000    
  13    10.00       9.963       9.877       9.739       9.594       9.469       9.388       9.318       9.230       9.119    
        8.966       8.781       8.608       8.467       8.283       8.070       7.858       7.630       7.383       7.102    
        6.831       6.593       6.376       6.178       5.992       5.870       5.791       5.672       5.543       5.445    
        5.363       5.280       5.199       5.117       5.023       4.924       4.790       4.563       4.306       3.996    
        3.636       3.173       2.491       1.870       1.446       1.167      0.9079      0.6275      0.3099       0.000    
  14    10.00       9.933       9.809       9.659       9.525       9.426       9.372       9.309       9.224       9.103    
        8.935       8.778       8.635       8.489       8.283       8.032       7.805       7.547       7.272       6.980    
        6.717       6.480       6.265       6.070       5.922       5.837       5.743       5.602       5.490       5.413    
        5.353       5.275       5.206       5.128       5.042       4.961       4.805       4.572       4.299       3.912    
        3.488       2.943       2.418       1.963       1.540       1.212      0.9241      0.6281      0.2797       0.000    
  15    10.00       9.876       9.739       9.604       9.497       9.422       9.362       9.303       9.219       9.107    
        8.959       8.806       8.667       8.464       8.225       7.986       7.732       7.465       7.138       6.825    
        6.581       6.351       6.147       5.995       5.882       5.791       5.680       5.546       5.453       5.396    
        5.330       5.265       5.210       5.138       5.055       4.968       4.804       4.581       4.238       3.820    
        3.380       2.888       2.461       1.991       1.634       1.284      0.9355      0.6220      0.2551       0.000    
  16    10.00       9.855       9.707       9.585       9.493       9.424       9.363       9.308       9.228       9.112    
        8.974       8.829       8.659       8.406       8.147       7.949       7.700       7.342       6.968       6.675    
        6.420       6.225       6.060       5.928       5.805       5.720       5.599       5.489       5.415       5.351    
        5.301       5.257       5.198       5.132       5.059       4.960       4.808       4.539       4.165       3.782    
        3.404       2.928       2.446       2.031       1.694       1.326      0.9325      0.5573      0.2097       0.000    
  17    10.00       9.837       9.688       9.590       9.508       9.439       9.379       9.317       9.230       9.123    
        8.995       8.814       8.584       8.312       8.095       7.908       7.608       7.208       6.825       6.540    
        6.331       6.114       5.930       5.793       5.690       5.586       5.479       5.407       5.345       5.305    
        5.281       5.240       5.178       5.112       5.037       4.931       4.753       4.519       4.213       3.809    
        3.374       2.872       2.425       2.058       1.713       1.335      0.9522      0.5805      0.2453       0.000    
  18    10.00       9.827       9.688       9.604       9.530       9.463       9.404       9.329       9.244       9.129    
        8.977       8.765       8.510       8.279       8.066       7.795       7.448       7.082       6.744       6.462    
        6.206       5.927       5.765       5.651       5.561       5.445       5.373       5.312       5.271       5.263    
        5.247       5.210       5.149       5.075       4.997       4.883       4.710       4.517       4.251       3.877    
        3.311       2.774       2.409       2.060       1.766       1.369      0.9464      0.5689      0.2450       0.000    
  19    10.00       9.835       9.719       9.632       9.554       9.487       9.417       9.348       9.270       9.138    
        8.958       8.733       8.480       8.225       7.944       7.651       7.328       6.974       6.634       6.335    
        6.037       5.790       5.660       5.569       5.444       5.340       5.280       5.225       5.211       5.206    
        5.199       5.171       5.101       5.029       4.962       4.872       4.706       4.493       4.224       3.785    
        3.215       2.759       2.395       2.051       1.722       1.312      0.9086      0.5652      0.2663       0.000    
  20    10.00       9.845       9.746       9.669       9.594       9.515       9.432       9.358       9.279       9.146    
        8.951       8.717       8.424       8.093       7.771       7.531       7.205       6.823       6.522       6.224    
        5.958       5.751       5.593       5.457       5.299       5.225       5.184       5.154       5.154       5.151    
        5.148       5.112       5.049       5.002       4.941       4.846       4.656       4.440       4.132       3.640    
        3.149       2.784       2.363       1.972       1.613       1.211      0.9110      0.5610      0.2487       0.000    
  21    10.00       9.867       9.779       9.702       9.619       9.543       9.453       9.372       9.287       9.137    
        8.929       8.644       8.280       7.892       7.591       7.370       7.063       6.781       6.498       6.175    
        5.920       5.693       5.495       5.241       5.109       5.070       5.013       5.044       5.074       5.071    
        5.064       5.030       5.003       4.971       4.915       4.783       4.592       4.402       3.955       3.444    
        3.078       2.686       2.257       1.893       1.514       1.162      0.8247      0.4942      0.2482       0.000    
  22    10.00       9.896       9.803       9.719       9.639       9.568       9.465       9.361       9.262       9.108    
        8.855       8.497       8.087       7.721       7.461       7.229       6.993       6.789       6.478       6.161    
        5.894       5.571       5.218       4.949       4.849       4.752       4.764       4.863       4.903       4.924    
        4.940       4.933       4.939       4.934       4.879       4.736       4.537       4.190       3.683       3.357    
        2.965       2.543       2.159       1.810       1.487       1.069      0.7155      0.4738      0.2663       0.000    
  23    10.00       9.897       9.808       9.732       9.648       9.554       9.438       9.344       9.257       9.063    
        8.753       8.369       7.994       7.674       7.407       7.210       6.987       6.720       6.421       6.169    
        5.798       5.324       4.945       4.671       4.270       4.271       4.485       4.607       4.696       4.779    
        4.817       4.843       4.870       4.880       4.824       4.675       4.384       3.981       3.567       3.169    
        2.797       2.449       2.080       1.804       1.395      0.9717      0.6959      0.4556      0.2365       0.000    
  24    10.00       9.920       9.818       9.719       9.622       9.514       9.410       9.330       9.233       9.004    
        8.651       8.288       7.977       7.699       7.444       7.186       6.913       6.669       6.432       6.135    
        5.692       5.222       4.772       3.946       3.062       3.580       4.077       4.368       4.529       4.661    
        4.731       4.774       4.811       4.806       4.745       4.556       4.230       3.894       3.437       3.013    
        2.723       2.388       2.039       1.686       1.248      0.9014      0.6694      0.4267      0.1883       0.000    
  25    10.00       9.913       9.795       9.674       9.560       9.463       9.383       9.303       9.183       8.946    
        8.575       8.236       7.998       7.739       7.445       7.177       6.921       6.708       6.489       6.109    
        5.601       5.137       4.416       3.072      0.2561       2.976       3.762       4.220       4.460       4.598    
        4.678       4.730       4.760       4.740       4.666       4.459       4.113       3.723       3.351       2.989    
        2.657       2.294       1.898       1.526       1.111      0.8279      0.6668      0.4149      0.1538       0.000    
  26    10.00       9.891       9.740       9.604       9.512       9.433       9.355       9.256       9.114       8.821    
        8.474       8.238       8.009       7.751       7.476       7.219       6.979       6.769       6.495       6.091    
        5.644       5.133       4.503       3.778       3.111       3.468       3.936       4.258       4.453       4.579    
        4.655       4.707       4.718       4.684       4.584       4.343       3.964       3.650       3.349       2.959    
        2.612       2.202       1.747       1.349       1.010      0.8104      0.6308      0.3699      0.1574       0.000    
  27    10.00       9.866       9.706       9.579       9.502       9.398       9.295       9.169       8.978       8.699    
        8.454       8.244       8.012       7.759       7.489       7.286       7.122       6.841       6.495       6.083    
        5.703       5.335       4.831       4.357       3.982       4.043       4.223       4.381       4.504       4.593    
        4.669       4.706       4.699       4.642       4.510       4.238       3.938       3.662       3.313       2.947    
        2.588       2.093       1.574       1.200      0.9640      0.7973      0.6000      0.3911      0.1885       0.000    
  28    10.00       9.849       9.731       9.589       9.457       9.330       9.215       9.066       8.876       8.658    
        8.456       8.268       8.037       7.755       7.516       7.354       7.171       6.860       6.458       6.093    
        5.826       5.553       5.160       4.794       4.558       4.482       4.477       4.525       4.602       4.670    
        4.713       4.717       4.692       4.609       4.440       4.197       3.959       3.636       3.274       2.907    
        2.470       2.005       1.489       1.118      0.9535      0.7942      0.6186      0.4085      0.1894       0.000    
  29    10.00       9.854       9.707       9.556       9.398       9.275       9.145       8.980       8.819       8.646    
        8.465       8.277       8.052       7.814       7.610       7.419       7.175       6.827       6.461       6.179    
        5.954       5.716       5.396       5.072       4.880       4.774       4.708       4.703       4.735       4.751    
        4.747       4.729       4.682       4.575       4.386       4.181       3.963       3.663       3.263       2.799    
        2.400       1.907       1.393       1.102      0.9566      0.7999      0.6139      0.3991      0.1984       0.000    
  30    10.00       9.832       9.684       9.503       9.342       9.229       9.090       8.944       8.819       8.663    
        8.477       8.274       8.067       7.877       7.696       7.480       7.168       6.844       6.553       6.288    
        6.097       5.863       5.574       5.294       5.062       4.966       4.901       4.869       4.841       4.812    
        4.778       4.742       4.673       4.535       4.367       4.207       3.990       3.605       3.113       2.643    
        2.242       1.792       1.401       1.132      0.9784      0.8017      0.6031      0.4183      0.2052       0.000    
  31    10.00       9.810       9.639       9.465       9.320       9.203       9.070       8.941       8.816       8.663    
        8.478       8.272       8.093       7.935       7.763       7.519       7.210       6.933       6.706       6.474    
        6.272       6.010       5.725       5.489       5.253       5.096       5.027       4.960       4.910       4.856    
        4.809       4.749       4.656       4.525       4.365       4.189       3.849       3.422       3.016       2.560    
        2.182       1.734       1.355       1.161      0.9966      0.8303      0.6236      0.4189      0.1985       0.000    
  32    10.00       9.795       9.611       9.462       9.339       9.222       9.083       8.936       8.784       8.639    
        8.455       8.276       8.116       7.941       7.780       7.571       7.333       7.127       6.896       6.658    
        6.455       6.210       5.924       5.673       5.426       5.204       5.113       5.030       4.958       4.881    
        4.817       4.761       4.639       4.481       4.334       4.091       3.674       3.277       2.923       2.509    
        2.070       1.654       1.376       1.227       1.048      0.8376      0.6189      0.3980      0.1985       0.000    
  33    10.00       9.789       9.630       9.511       9.388       9.252       9.084       8.919       8.756       8.589    
        8.435       8.285       8.127       7.960       7.780       7.618       7.445       7.270       7.080       6.848    
        6.611       6.381       6.143       5.852       5.548       5.298       5.165       5.080       4.989       4.894    
        4.823       4.739       4.607       4.459       4.248       3.915       3.493       3.161       2.823       2.344    
        1.947       1.677       1.457       1.280       1.075      0.8541      0.5863      0.3501      0.1577       0.000    
  34    10.00       9.807       9.677       9.565       9.429       9.260       9.083       8.890       8.708       8.569    
        8.431       8.294       8.151       7.978       7.820       7.663       7.513       7.374       7.193       6.955    
        6.731       6.524       6.289       5.985       5.651       5.371       5.203       5.100       5.001       4.895    
        4.803       4.709       4.582       4.396       4.139       3.730       3.324       3.031       2.634       2.214    
        1.973       1.795       1.583       1.354       1.086      0.7745      0.4737      0.2803      0.1162       0.000    
  35    10.00       9.839       9.722       9.607       9.461       9.271       9.068       8.852       8.680       8.560    
        8.469       8.330       8.171       7.986       7.817       7.706       7.596       7.452       7.264       7.038    
        6.825       6.621       6.403       6.057       5.678       5.409       5.226       5.112       4.998       4.877    
        4.786       4.678       4.528       4.282       3.881       3.460       3.194       2.895       2.493       2.244    
        2.076       1.874       1.662       1.439       1.098      0.6585      0.3637      0.2390      0.1213       0.000    
  36    10.00       9.858       9.756       9.646       9.490       9.264       9.015       8.812       8.689       8.598    
        8.472       8.312       8.165       8.001       7.853       7.743       7.638       7.509       7.360       7.150    
        6.929       6.714       6.442       6.066       5.694       5.422       5.250       5.114       4.970       4.853    
        4.747       4.611       4.367       3.998       3.635       3.353       3.108       2.796       2.481       2.318    
        2.148       1.967       1.752       1.464       1.002      0.5542      0.3415      0.2185      0.1122       0.000    
  37    10.00       9.872       9.793       9.674       9.466       9.218       8.998       8.840       8.739       8.628    
        8.464       8.293       8.165       8.024       7.886       7.779       7.682       7.562       7.404       7.219    
        7.039       6.802       6.458       6.100       5.743       5.436       5.224       5.052       4.918       4.799    
        4.671       4.466       4.100       3.771       3.524       3.283       3.034       2.791       2.569       2.388    
        2.224       2.021       1.777       1.399      0.9172      0.5340      0.3196      0.2031      0.1019       0.000    
  38    10.00       9.891       9.796       9.665       9.449       9.192       9.007       8.889       8.783       8.651    
        8.477       8.298       8.173       8.042       7.904       7.797       7.711       7.606       7.448       7.289    
        7.121       6.842       6.447       6.057       5.695       5.392       5.158       4.967       4.838       4.725    
        4.556       4.215       3.899       3.701       3.460       3.225       3.047       2.846       2.644       2.470    
        2.278       2.002       1.693       1.283      0.8050      0.5112      0.3595      0.2240      0.1005       0.000    
  39    10.00       9.890       9.781       9.644       9.434       9.203       9.035       8.930       8.799       8.652    
        8.510       8.330       8.187       8.062       7.929       7.814       7.716       7.612       7.485       7.340    
        7.137       6.832       6.415       5.975       5.603       5.317       5.050       4.852       4.759       4.646    
        4.372       4.032       3.846       3.621       3.399       3.236       3.091       2.909       2.714       2.552    
        2.274       1.884       1.521       1.079      0.7175      0.5536      0.4120      0.2682      0.1380       0.000    
  40    10.00       9.880       9.785       9.645       9.452       9.257       9.093       8.954       8.798       8.663    
        8.556       8.380       8.198       8.071       7.948       7.817       7.708       7.625       7.513       7.332    
        7.093       6.737       6.310       5.896       5.520       5.219       4.911       4.758       4.675       4.522    
        4.276       4.035       3.784       3.556       3.403       3.264       3.127       2.958       2.779       2.566    
        2.191       1.766       1.374       1.017      0.7695      0.6007      0.4597      0.3244      0.1593       0.000    
  41    10.00       9.897       9.820       9.683       9.484       9.281       9.123       8.998       8.845       8.684    
        8.556       8.393       8.224       8.104       7.960       7.803       7.711       7.619       7.467       7.264    
        7.015       6.663       6.234       5.832       5.456       5.051       4.771       4.692       4.598       4.486    
        4.297       4.006       3.758       3.580       3.430       3.308       3.158       2.997       2.812       2.481    
        2.042       1.629       1.289       1.026      0.8124      0.6557      0.5051      0.3568      0.1878       0.000    
  42    10.00       9.922       9.837       9.706       9.533       9.338       9.160       9.030       8.891       8.712    
        8.547       8.390       8.245       8.130       7.976       7.812       7.698       7.571       7.404       7.170    
        6.880       6.494       6.118       5.716       5.224       4.871       4.733       4.670       4.591       4.473    
        4.251       3.998       3.769       3.591       3.472       3.342       3.210       3.036       2.741       2.302    
        1.919       1.612       1.317       1.021      0.8225      0.6894      0.5449      0.3714      0.2060       0.000    
  43    10.00       9.938       9.846       9.711       9.540       9.377       9.218       9.072       8.898       8.710    
        8.559       8.400       8.256       8.149       8.004       7.815       7.662       7.516       7.287       6.990    
        6.708       6.337       5.991       5.528       5.067       4.840       4.733       4.661       4.587       4.463    
        4.252       4.023       3.805       3.633       3.519       3.391       3.218       2.969       2.538       2.150    
        1.912       1.641       1.331       1.024      0.8140      0.6909      0.5796      0.4015      0.1881       0.000    
  44    10.00       9.931       9.852       9.710       9.554       9.437       9.275       9.075       8.876       8.720    
        8.568       8.407       8.281       8.167       7.995       7.791       7.613       7.439       7.169       6.874    
        6.539       6.171       5.804       5.343       5.001       4.835       4.743       4.681       4.600       4.443    
        4.231       4.048       3.856       3.698       3.581       3.403       3.173       2.818       2.382       2.127    
        1.909       1.626       1.317       1.037      0.8235      0.6927      0.5799      0.3932      0.1732       0.000    
  45    10.00       9.916       9.821       9.706       9.593       9.440       9.269       9.076       8.879       8.721    
        8.562       8.416       8.305       8.172       7.983       7.762       7.564       7.367       7.075       6.731    
        6.347       5.960       5.566       5.230       4.996       4.856       4.768       4.701       4.598       4.470    
        4.287       4.080       3.909       3.745       3.577       3.390       3.138       2.761       2.384       2.087    
        1.840       1.574       1.285       1.035      0.8490      0.7406      0.5722      0.3406      0.1553       0.000    
  46    10.00       9.899       9.800       9.708       9.578       9.402       9.235       9.077       8.882       8.713    
        8.572       8.437       8.323       8.163       7.960       7.763       7.552       7.294       6.980       6.607    
        6.159       5.776       5.464       5.211       5.033       4.909       4.800       4.709       4.628       4.486    
        4.290       4.111       3.942       3.753       3.587       3.410       3.127       2.692       2.298       2.034    
        1.802       1.547       1.277       1.058      0.9138      0.7743      0.5187      0.2550      0.1109       0.000    
  47    10.00       9.892       9.792       9.664       9.512       9.368       9.224       9.053       8.875       8.724    
        8.594       8.473       8.311       8.137       7.954       7.762       7.529       7.230       6.937       6.485    
        6.000       5.703       5.436       5.237       5.072       4.951       4.840       4.731       4.636       4.489    
        4.284       4.106       3.935       3.757       3.615       3.400       3.007       2.618       2.290       2.009    
        1.806       1.566       1.325       1.114      0.9357      0.7102      0.4267      0.2230      9.2869E-02   0.000    
  48    10.00       9.880       9.759       9.623       9.485       9.357       9.211       9.054       8.890       8.741    
        8.608       8.465       8.287       8.108       7.929       7.738       7.514       7.233       6.869       6.421    
        6.004       5.700       5.440       5.258       5.123       4.973       4.860       4.769       4.652       4.451    
        4.251       4.077       3.921       3.790       3.601       3.317       2.945       2.596       2.285       2.038    
        1.819       1.591       1.374       1.135      0.8675      0.5768      0.3646      0.2162      9.7685E-02   0.000    
  49    10.00       9.869       9.737       9.604       9.491       9.358       9.204       9.050       8.916       8.762    
        8.603       8.422       8.247       8.096       7.892       7.706       7.520       7.205       6.846       6.490    
        6.050       5.711       5.452       5.293       5.134       4.972       4.885       4.797       4.607       4.366    
        4.195       4.057       3.944       3.773       3.554       3.302       2.930       2.581       2.337       2.075    
        1.818       1.608       1.377       1.096      0.7679      0.5142      0.3646      0.2353      0.1207       0.000    
  50    10.00       9.874       9.742       9.606       9.483       9.353       9.215       9.063       8.923       8.784    
        8.589       8.400       8.240       8.038       7.831       7.689       7.512       7.267       6.912       6.559    
        6.110       5.684       5.459       5.297       5.132       5.000       4.895       4.776       4.551       4.323    
        4.182       4.068       3.936       3.759       3.557       3.315       2.939       2.583       2.345       2.109    
        1.864       1.600       1.340       1.039      0.7158      0.5261      0.3923      0.2659      0.1604       0.000    

 HEAD WILL BE SAVED ON UNIT   51 AT END OF TIME STEP  35, STRESS PERIOD    2

 DRAWDOWN WILL BE SAVED ON UNIT   52 AT END OF TIME STEP  35, STRESS PERIOD    2
1
  VOLUMETRIC BUDGET FOR ENTIRE MODEL AT END OF TIME STEP 35 IN STRESS PERIOD   2
  ------------------------------------------------------------------------------

     CUMULATIVE VOLUMES      L**3       RATES FOR THIS TIME STEP      L**3/T
     ------------------                 ------------------------

           IN:                                      IN:
           ---                                      ---
             STORAGE =       17453.8789               STORAGE =         494.0071
       CONSTANT HEAD =       13452.9678         CONSTANT HEAD =         378.1552
               WELLS =           0.0000                 WELLS =           0.0000

            TOTAL IN =       30906.8477              TOTAL IN =         872.1622

          OUT:                                     OUT:
          ----                                     ----
             STORAGE =       1.1143E-02               STORAGE =           0.0000
       CONSTANT HEAD =       13406.8350         CONSTANT HEAD =         372.1621
               WELLS =       17500.0000                 WELLS =         500.0000

           TOTAL OUT =       30906.8457             TOTAL OUT =         872.1621

            IN - OUT =       1.9531E-03              IN - OUT =       1.2207E-04

 PERCENT DISCREPANCY =           0.00     PERCENT DISCREPANCY =           0.00






          TIME SUMMARY AT END OF TIME STEP  35 IN STRESS PERIOD    2
                    SECONDS     MINUTES      HOURS       DAYS        YEARS
                    -----------------------------------------------------------
   TIME STEP LENGTH  86400.      1440.0      24.000      1.0000     2.73785E-03
 STRESS PERIOD TIME 3.02400E+06  50400.      840.00      35.000     9.58248E-02
         TOTAL TIME 3.11040E+06  51840.      864.00      36.000     9.85626E-02
1
 
 SOLVING FOR HEAD 

 OUTPUT CONTROL FOR STRESS PERIOD    2   TIME STEP  36
    SAVE HEAD FOR ALL LAYERS
    SAVE DRAWDOWN FOR ALL LAYERS
    SAVE BUDGET
    PRINT HEAD FOR ALL LAYERS
    PRINT BUDGET
 UBDSV1 SAVING "         STORAGE" ON UNIT  53 AT TIME STEP 36, STRESS PERIOD   2
 UBDSV2 SAVING "   CONSTANT HEAD" ON UNIT  53 AT TIME STEP 36, STRESS PERIOD   2
 UBDSV1 SAVING "FLOW RIGHT FACE " ON UNIT  53 AT TIME STEP 36, STRESS PERIOD   2
 UBDSV1 SAVING "FLOW FRONT FACE " ON UNIT  53 AT TIME STEP 36, STRESS PERIOD   2
1
              HEAD IN LAYER   1 AT END OF TIME STEP  36 IN STRESS PERIOD    2
  ---------------------------------------------------------------------------

            1           2           3           4           5           6           7           8           9          10
           11          12          13          14          15          16          17          18          19          20
           21          22          23          24          25          26          27          28          29          30
           31          32          33          34          35          36          37          38          39          40
           41          42          43          44          45          46          47          48          49          50
 ........................................................................................................................
   1    10.00       9.953       9.906       9.851       9.807       9.770       9.721       9.653       9.579       9.511    
        9.360       9.171       9.031       8.876       8.710       8.543       8.387       8.209       7.969       7.732    
        7.569       7.383       7.138       6.890       6.668       6.475       6.199       5.948       5.770       5.583    
        5.421       5.315       5.199       5.067       4.941       4.783       4.614       4.385       4.123       3.836    
        3.468       3.094       2.604       2.070       1.669       1.380       1.165      0.9182      0.5390       0.000    
   2    10.00       9.948       9.898       9.851       9.814       9.778       9.724       9.654       9.586       9.494    
        9.347       9.178       9.021       8.879       8.726       8.554       8.369       8.185       7.962       7.723    
        7.545       7.393       7.132       6.864       6.667       6.448       6.182       5.942       5.738       5.561    
        5.424       5.327       5.229       5.087       4.939       4.783       4.588       4.374       4.121       3.794    
        3.450       3.131       2.616       2.086       1.730       1.472       1.224      0.9484      0.5724       0.000    
   3    10.00       9.940       9.898       9.865       9.830       9.793       9.734       9.652       9.569       9.469    
        9.335       9.185       9.034       8.891       8.710       8.494       8.314       8.155       7.950       7.740    
        7.558       7.341       7.085       6.848       6.634       6.389       6.136       5.899       5.689       5.556    
        5.443       5.348       5.250       5.094       4.938       4.773       4.580       4.341       4.058       3.808    
        3.502       3.067       2.565       2.184       1.880       1.581       1.275      0.9612      0.5425       0.000    
   4    10.00       9.940       9.903       9.873       9.849       9.810       9.742       9.647       9.549       9.450    
        9.322       9.188       9.037       8.858       8.635       8.435       8.306       8.127       7.930       7.765    
        7.518       7.244       7.018       6.808       6.601       6.310       6.029       5.840       5.695       5.580    
        5.477       5.378       5.271       5.091       4.899       4.749       4.546       4.299       4.056       3.836    
        3.488       3.009       2.629       2.307       1.981       1.641       1.271      0.9050      0.4636       0.000    
   5    10.00       9.945       9.910       9.882       9.860       9.819       9.748       9.640       9.531       9.431    
        9.323       9.185       8.992       8.783       8.594       8.436       8.276       8.109       7.924       7.694    
        7.408       7.181       6.994       6.781       6.516       6.215       5.983       5.848       5.728       5.612    
        5.494       5.373       5.251       5.079       4.883       4.702       4.519       4.324       4.102       3.811    
        3.416       3.050       2.724       2.399       2.043       1.646       1.183      0.7623      0.3947       0.000    
   6    10.00       9.954       9.921       9.892       9.862       9.818       9.742       9.625       9.530       9.424    
        9.303       9.133       8.922       8.748       8.574       8.395       8.232       8.084       7.877       7.616    
        7.363       7.146       6.955       6.693       6.407       6.178       5.989       5.861       5.730       5.610    
        5.506       5.373       5.220       5.043       4.853       4.697       4.537       4.359       4.124       3.810    
        3.464       3.109       2.776       2.447       2.060       1.580       1.081      0.7170      0.3691       0.000    
   7    10.00       9.960       9.931       9.901       9.869       9.815       9.714       9.602       9.504       9.373    
        9.249       9.068       8.877       8.699       8.522       8.341       8.182       8.046       7.811       7.533    
        7.305       7.086       6.873       6.619       6.375       6.164       5.998       5.849       5.709       5.613    
        5.506       5.361       5.199       5.018       4.853       4.714       4.566       4.382       4.141       3.853    
        3.508       3.143       2.796       2.433       2.051       1.547       1.034      0.6831      0.3232       0.000    
   8    10.00       9.967       9.941       9.909       9.871       9.786       9.662       9.557       9.434       9.309    
        9.173       8.989       8.827       8.647       8.449       8.273       8.136       7.975       7.754       7.485    
        7.221       7.020       6.843       6.584       6.331       6.143       5.956       5.795       5.698       5.606    
        5.479       5.334       5.196       5.035       4.860       4.715       4.602       4.460       4.222       3.890    
        3.512       3.186       2.861       2.437       2.011       1.448      0.9584      0.6692      0.3097       0.000    
   9    10.00       9.974       9.945       9.908       9.846       9.734       9.603       9.480       9.372       9.244    
        9.084       8.921       8.761       8.588       8.386       8.220       8.093       7.904       7.687       7.415    
        7.185       6.986       6.740       6.476       6.262       6.095       5.906       5.768       5.673       5.569    
        5.454       5.322       5.192       5.050       4.900       4.758       4.641       4.514       4.267       3.907    
        3.558       3.266       2.923       2.514       1.882       1.246      0.9132      0.5660      0.2159       0.000    
  10    10.00       9.974       9.944       9.893       9.797       9.664       9.520       9.424       9.323       9.172    
        9.032       8.871       8.712       8.527       8.341       8.192       8.022       7.827       7.599       7.379    
        7.154       6.853       6.600       6.391       6.209       6.058       5.884       5.741       5.647       5.559    
        5.435       5.293       5.176       5.045       4.912       4.814       4.695       4.547       4.265       3.907    
        3.632       3.374       2.980       2.362       1.631       1.171      0.8291      0.5062      0.2525       0.000    
  11    10.00       9.974       9.934       9.856       9.748       9.600       9.473       9.392       9.272       9.144    
        9.010       8.841       8.652       8.454       8.297       8.139       7.981       7.772       7.551       7.335    
        7.019       6.729       6.525       6.336       6.159       5.993       5.830       5.715       5.635       5.548    
        5.408       5.275       5.175       5.057       4.946       4.836       4.702       4.542       4.276       3.987    
        3.696       3.360       2.931       2.250       1.565       1.101      0.7772      0.5895      0.3256       0.000    
  12    10.00       9.972       9.916       9.816       9.675       9.529       9.428       9.348       9.243       9.128    
        8.982       8.803       8.614       8.438       8.278       8.104       7.922       7.710       7.486       7.196    
        6.886       6.664       6.463       6.271       6.077       5.911       5.794       5.706       5.604       5.495    
        5.371       5.269       5.181       5.086       4.986       4.876       4.731       4.534       4.286       4.025    
        3.713       3.346       2.758       1.994       1.412       1.085      0.8632      0.6257      0.3566       0.000    
  13    10.00       9.963       9.876       9.739       9.593       9.468       9.387       9.317       9.228       9.117    
        8.964       8.779       8.604       8.464       8.279       8.065       7.853       7.623       7.376       7.093    
        6.821       6.582       6.365       6.167       5.980       5.858       5.779       5.661       5.531       5.433    
        5.352       5.270       5.189       5.108       5.014       4.916       4.783       4.557       4.301       3.992    
        3.633       3.170       2.490       1.870       1.446       1.167      0.9077      0.6273      0.3099       0.000    
  14    10.00       9.933       9.809       9.658       9.524       9.425       9.371       9.307       9.222       9.101    
        8.933       8.775       8.632       8.485       8.279       8.027       7.799       7.539       7.263       6.970    
        6.706       6.468       6.252       6.057       5.909       5.824       5.730       5.589       5.478       5.401    
        5.341       5.264       5.195       5.118       5.032       4.953       4.797       4.565       4.294       3.908    
        3.485       2.941       2.416       1.963       1.539       1.212      0.9239      0.6280      0.2796       0.000    
  15    10.00       9.875       9.738       9.604       9.496       9.421       9.361       9.301       9.217       9.105    
        8.957       8.803       8.663       8.459       8.220       7.980       7.725       7.456       7.128       6.814    
        6.568       6.337       6.134       5.981       5.868       5.777       5.666       5.532       5.440       5.384    
        5.317       5.253       5.199       5.127       5.045       4.959       4.795       4.574       4.233       3.816    
        3.377       2.886       2.460       1.990       1.634       1.284      0.9353      0.6219      0.2550       0.000    
  16    10.00       9.855       9.707       9.584       9.492       9.423       9.362       9.307       9.226       9.110    
        8.971       8.825       8.655       8.400       8.140       7.941       7.692       7.332       6.956       6.662    
        6.406       6.211       6.045       5.914       5.790       5.706       5.585       5.474       5.401       5.338    
        5.288       5.245       5.186       5.121       5.048       4.949       4.799       4.532       4.159       3.778    
        3.401       2.926       2.444       2.030       1.694       1.325      0.9323      0.5572      0.2097       0.000    
  17    10.00       9.836       9.687       9.589       9.507       9.437       9.377       9.315       9.228       9.121    
        8.992       8.810       8.579       8.306       8.087       7.899       7.598       7.196       6.812       6.526    
        6.316       6.098       5.914       5.777       5.674       5.571       5.463       5.391       5.330       5.290    
        5.267       5.227       5.166       5.100       5.026       4.921       4.743       4.511       4.207       3.805    
        3.371       2.870       2.424       2.058       1.713       1.335      0.9520      0.5804      0.2453       0.000    
  18    10.00       9.827       9.687       9.603       9.529       9.462       9.402       9.328       9.242       9.127    
        8.974       8.761       8.504       8.272       8.058       7.785       7.436       7.068       6.729       6.447    
        6.190       5.910       5.748       5.634       5.543       5.428       5.356       5.295       5.255       5.248    
        5.232       5.196       5.135       5.062       4.985       4.872       4.700       4.508       4.244       3.872    
        3.308       2.773       2.408       2.059       1.766       1.369      0.9463      0.5688      0.2450       0.000    
  19    10.00       9.835       9.718       9.631       9.553       9.486       9.416       9.347       9.268       9.135    
        8.955       8.728       8.474       8.217       7.935       7.640       7.316       6.960       6.618       6.318    
        6.020       5.772       5.642       5.551       5.426       5.322       5.262       5.208       5.194       5.189    
        5.184       5.156       5.086       5.016       4.950       4.860       4.696       4.484       4.217       3.780    
        3.212       2.757       2.394       2.051       1.721       1.312      0.9084      0.5651      0.2662       0.000    
  20    10.00       9.844       9.745       9.669       9.593       9.513       9.431       9.357       9.277       9.143    
        8.948       8.712       8.418       8.084       7.761       7.519       7.192       6.808       6.506       6.206    
        5.939       5.733       5.575       5.439       5.280       5.207       5.166       5.136       5.136       5.133    
        5.131       5.096       5.034       4.987       4.928       4.834       4.646       4.432       4.125       3.636    
        3.146       2.782       2.362       1.971       1.613       1.210      0.9109      0.5610      0.2487       0.000    
  21    10.00       9.867       9.778       9.701       9.618       9.542       9.451       9.371       9.285       9.134    
        8.925       8.638       8.273       7.882       7.579       7.356       7.048       6.765       6.481       6.157    
        5.902       5.674       5.476       5.222       5.089       5.051       4.994       5.026       5.056       5.052    
        5.046       5.012       4.987       4.955       4.901       4.770       4.582       4.393       3.949       3.440    
        3.076       2.684       2.256       1.893       1.513       1.161      0.8246      0.4942      0.2482       0.000    
  22    10.00       9.896       9.802       9.718       9.638       9.567       9.464       9.360       9.260       9.105    
        8.850       8.491       8.078       7.710       7.448       7.215       6.977       6.773       6.460       6.143    
        5.875       5.552       5.198       4.929       4.829       4.732       4.744       4.844       4.884       4.905    
        4.921       4.914       4.922       4.917       4.864       4.723       4.527       4.183       3.679       3.354    
        2.963       2.542       2.158       1.809       1.486       1.069      0.7154      0.4738      0.2663       0.000    
  23    10.00       9.897       9.807       9.731       9.647       9.553       9.436       9.342       9.255       9.060    
        8.748       8.361       7.984       7.662       7.393       7.195       6.972       6.703       6.404       6.150    
        5.779       5.304       4.925       4.650       4.249       4.250       4.464       4.587       4.676       4.759    
        4.797       4.824       4.851       4.862       4.808       4.662       4.375       3.975       3.562       3.166    
        2.795       2.448       2.079       1.803       1.395      0.9715      0.6959      0.4555      0.2365       0.000    
  24    10.00       9.920       9.818       9.718       9.621       9.513       9.408       9.328       9.230       9.001    
        8.645       8.280       7.967       7.687       7.431       7.172       6.897       6.652       6.414       6.117    
        5.673       5.201       4.751       3.924       3.039       3.558       4.055       4.347       4.508       4.640    
        4.710       4.753       4.791       4.787       4.729       4.542       4.221       3.888       3.433       3.011    
        2.721       2.387       2.038       1.686       1.248      0.9013      0.6694      0.4267      0.1883       0.000    
  25    10.00       9.912       9.795       9.673       9.559       9.461       9.381       9.301       9.180       8.942    
        8.569       8.228       7.988       7.728       7.431       7.163       6.905       6.692       6.471       6.090    
        5.581       5.116       4.395       3.049      0.2321       2.954       3.739       4.198       4.438       4.576    
        4.657       4.709       4.740       4.722       4.649       4.446       4.104       3.717       3.347       2.987    
        2.655       2.293       1.897       1.525       1.110      0.8277      0.6667      0.4149      0.1538       0.000    
  26    10.00       9.890       9.739       9.603       9.511       9.432       9.353       9.253       9.111       8.816    
        8.468       8.230       8.000       7.740       7.463       7.205       6.964       6.753       6.477       6.072    
        5.624       5.112       4.482       3.756       3.088       3.445       3.913       4.236       4.431       4.558    
        4.634       4.686       4.698       4.666       4.568       4.330       3.955       3.643       3.344       2.956    
        2.610       2.201       1.747       1.348       1.010      0.8103      0.6307      0.3698      0.1574       0.000    
  27    10.00       9.866       9.705       9.578       9.500       9.396       9.292       9.166       8.975       8.694    
        8.447       8.236       8.002       7.748       7.476       7.272       7.108       6.825       6.478       6.065    
        5.684       5.315       4.810       4.335       3.960       4.021       4.201       4.359       4.483       4.571    
        4.648       4.686       4.680       4.624       4.494       4.226       3.929       3.655       3.309       2.944    
        2.586       2.092       1.573       1.200      0.9638      0.7972      0.5999      0.3911      0.1885       0.000    
  28    10.00       9.848       9.730       9.587       9.455       9.328       9.213       9.063       8.872       8.653    
        8.450       8.260       8.028       7.745       7.504       7.341       7.157       6.844       6.440       6.075    
        5.807       5.533       5.140       4.773       4.537       4.460       4.455       4.503       4.580       4.649    
        4.692       4.697       4.673       4.592       4.425       4.185       3.949       3.629       3.269       2.903    
        2.468       2.004       1.489       1.118      0.9533      0.7941      0.6185      0.4084      0.1893       0.000    
  29    10.00       9.853       9.706       9.555       9.396       9.273       9.143       8.977       8.815       8.641    
        8.459       8.270       8.043       7.804       7.599       7.406       7.161       6.812       6.444       6.161    
        5.935       5.696       5.376       5.051       4.859       4.753       4.687       4.682       4.714       4.731    
        4.727       4.710       4.664       4.558       4.372       4.169       3.953       3.656       3.258       2.795    
        2.398       1.906       1.392       1.102      0.9564      0.7997      0.6138      0.3990      0.1984       0.000    
  30    10.00       9.832       9.683       9.501       9.340       9.227       9.087       8.941       8.815       8.659    
        8.471       8.267       8.059       7.868       7.686       7.468       7.155       6.830       6.537       6.271    
        6.079       5.845       5.554       5.273       5.041       4.945       4.880       4.849       4.821       4.793    
        4.759       4.723       4.656       4.520       4.354       4.195       3.980       3.598       3.109       2.641    
        2.241       1.791       1.400       1.132      0.9782      0.8015      0.6030      0.4183      0.2051       0.000    
  31    10.00       9.810       9.638       9.463       9.318       9.200       9.068       8.938       8.812       8.659    
        8.472       8.265       8.086       7.927       7.754       7.508       7.198       6.919       6.691       6.458    
        6.255       5.992       5.706       5.470       5.233       5.076       5.007       4.941       4.892       4.837    
        4.791       4.732       4.640       4.510       4.352       4.178       3.840       3.417       3.013       2.558    
        2.181       1.733       1.354       1.160      0.9964      0.8301      0.6235      0.4188      0.1985       0.000    
  32    10.00       9.795       9.610       9.460       9.338       9.220       9.081       8.933       8.780       8.635    
        8.449       8.270       8.109       7.933       7.771       7.561       7.322       7.115       6.883       6.643    
        6.439       6.193       5.906       5.654       5.408       5.185       5.095       5.012       4.940       4.863    
        4.800       4.744       4.624       4.467       4.322       4.081       3.666       3.272       2.920       2.507    
        2.068       1.653       1.376       1.227       1.047      0.8374      0.6188      0.3979      0.1984       0.000    
  33    10.00       9.788       9.630       9.510       9.387       9.250       9.082       8.916       8.752       8.585    
        8.430       8.279       8.120       7.952       7.772       7.609       7.435       7.259       7.068       6.834    
        6.596       6.366       6.127       5.835       5.531       5.280       5.148       5.063       4.973       4.878    
        4.807       4.723       4.593       4.446       4.237       3.907       3.487       3.157       2.820       2.342    
        1.946       1.676       1.456       1.279       1.075      0.8539      0.5861      0.3501      0.1577       0.000    
  34    10.00       9.807       9.677       9.564       9.427       9.258       9.081       8.887       8.705       8.564    
        8.426       8.288       8.145       7.971       7.812       7.655       7.504       7.364       7.181       6.942    
        6.718       6.510       6.274       5.969       5.635       5.354       5.186       5.084       4.986       4.880    
        4.788       4.695       4.568       4.384       4.129       3.723       3.319       3.028       2.631       2.213    
        1.972       1.794       1.582       1.354       1.085      0.7743      0.4736      0.2803      0.1162       0.000    
  35    10.00       9.838       9.721       9.606       9.460       9.269       9.066       8.849       8.677       8.556    
        8.464       8.325       8.165       7.980       7.810       7.698       7.588       7.443       7.254       7.027    
        6.813       6.608       6.389       6.043       5.663       5.394       5.211       5.097       4.984       4.863    
        4.772       4.665       4.516       4.271       3.873       3.455       3.190       2.892       2.491       2.242    
        2.075       1.874       1.661       1.438       1.098      0.6583      0.3636      0.2389      0.1213       0.000    
  36    10.00       9.857       9.755       9.645       9.489       9.262       9.013       8.809       8.686       8.594    
        8.467       8.307       8.159       7.995       7.846       7.736       7.630       7.500       7.351       7.140    
        6.918       6.703       6.430       6.053       5.680       5.409       5.236       5.100       4.957       4.840    
        4.734       4.599       4.357       3.990       3.629       3.349       3.105       2.794       2.479       2.316    
        2.147       1.966       1.751       1.464       1.001      0.5541      0.3414      0.2184      0.1122       0.000    
  37    10.00       9.872       9.793       9.674       9.465       9.216       8.996       8.838       8.736       8.624    
        8.460       8.289       8.160       8.019       7.880       7.773       7.674       7.554       7.396       7.210    
        7.030       6.792       6.447       6.089       5.731       5.424       5.212       5.041       4.907       4.788    
        4.660       4.456       4.093       3.765       3.520       3.280       3.031       2.789       2.567       2.386    
        2.223       2.021       1.777       1.399      0.9170      0.5338      0.3196      0.2031      0.1018       0.000    
  38    10.00       9.891       9.795       9.664       9.447       9.191       9.004       8.887       8.781       8.648    
        8.473       8.294       8.168       8.037       7.898       7.791       7.705       7.599       7.441       7.281    
        7.113       6.833       6.438       6.047       5.686       5.382       5.149       4.958       4.829       4.716    
        4.548       4.208       3.894       3.696       3.456       3.222       3.045       2.844       2.642       2.469    
        2.277       2.001       1.692       1.283      0.8048      0.5111      0.3595      0.2239      0.1005       0.000    
  39    10.00       9.889       9.780       9.643       9.433       9.201       9.033       8.928       8.796       8.649    
        8.507       8.326       8.182       8.057       7.923       7.809       7.711       7.605       7.478       7.333    
        7.130       6.825       6.408       5.968       5.596       5.310       5.043       4.845       4.752       4.639    
        4.366       4.028       3.842       3.618       3.397       3.234       3.089       2.907       2.713       2.550    
        2.273       1.883       1.520       1.079      0.7173      0.5535      0.4119      0.2682      0.1380       0.000    
  40    10.00       9.880       9.785       9.644       9.451       9.256       9.091       8.952       8.795       8.660    
        8.553       8.376       8.194       8.067       7.943       7.812       7.703       7.620       7.507       7.326    
        7.087       6.732       6.305       5.890       5.514       5.214       4.907       4.754       4.670       4.517    
        4.272       4.031       3.781       3.553       3.401       3.262       3.126       2.956       2.777       2.565    
        2.190       1.765       1.373       1.017      0.7693      0.6006      0.4596      0.3244      0.1593       0.000    
  41    10.00       9.896       9.820       9.683       9.483       9.280       9.122       8.996       8.843       8.682    
        8.554       8.390       8.220       8.100       7.956       7.798       7.706       7.614       7.462       7.260    
        7.010       6.660       6.231       5.828       5.452       5.048       4.767       4.689       4.594       4.483    
        4.294       4.003       3.755       3.578       3.428       3.306       3.157       2.996       2.811       2.480    
        2.041       1.629       1.288       1.026      0.8122      0.6556      0.5050      0.3567      0.1878       0.000    
  42    10.00       9.922       9.837       9.705       9.533       9.337       9.159       9.029       8.889       8.710    
        8.544       8.387       8.242       8.127       7.973       7.808       7.694       7.567       7.400       7.167    
        6.877       6.491       6.115       5.713       5.221       4.869       4.730       4.667       4.588       4.470    
        4.248       3.996       3.767       3.589       3.470       3.340       3.208       3.035       2.740       2.301    
        1.919       1.612       1.317       1.021      0.8224      0.6893      0.5449      0.3713      0.2060       0.000    
  43    10.00       9.938       9.846       9.710       9.539       9.376       9.217       9.071       8.896       8.709    
        8.557       8.398       8.254       8.147       8.001       7.812       7.659       7.513       7.285       6.988    
        6.706       6.335       5.990       5.526       5.065       4.838       4.731       4.659       4.585       4.460    
        4.250       4.021       3.803       3.631       3.518       3.389       3.216       2.968       2.537       2.150    
        1.912       1.641       1.330       1.024      0.8139      0.6908      0.5796      0.4014      0.1881       0.000    
  44    10.00       9.931       9.852       9.710       9.554       9.436       9.274       9.074       8.875       8.719    
        8.566       8.406       8.279       8.165       7.993       7.788       7.611       7.437       7.167       6.873    
        6.537       6.169       5.803       5.342       4.999       4.833       4.741       4.679       4.598       4.441    
        4.229       4.046       3.855       3.696       3.580       3.402       3.172       2.817       2.381       2.126    
        1.909       1.626       1.317       1.037      0.8234      0.6926      0.5798      0.3931      0.1732       0.000    
  45    10.00       9.916       9.821       9.706       9.592       9.440       9.268       9.076       8.878       8.721    
        8.561       8.416       8.304       8.171       7.981       7.761       7.562       7.365       7.074       6.730    
        6.346       5.959       5.565       5.229       4.995       4.855       4.766       4.700       4.596       4.469    
        4.285       4.078       3.907       3.744       3.576       3.389       3.137       2.760       2.384       2.087    
        1.839       1.573       1.285       1.035      0.8489      0.7405      0.5722      0.3406      0.1553       0.000    
  46    10.00       9.899       9.800       9.708       9.578       9.402       9.235       9.077       8.882       8.713    
        8.571       8.436       8.322       8.162       7.959       7.762       7.551       7.294       6.979       6.607    
        6.158       5.775       5.463       5.210       5.032       4.908       4.798       4.708       4.626       4.484    
        4.289       4.109       3.941       3.752       3.586       3.409       3.126       2.692       2.298       2.034    
        1.802       1.547       1.277       1.058      0.9138      0.7743      0.5187      0.2550      0.1109       0.000    
  47    10.00       9.892       9.791       9.664       9.512       9.368       9.224       9.053       8.875       8.724    
        8.594       8.472       8.310       8.136       7.954       7.762       7.528       7.229       6.936       6.484    
        5.999       5.702       5.435       5.237       5.071       4.950       4.838       4.730       4.635       4.487    
        4.283       4.105       3.935       3.757       3.614       3.399       3.007       2.618       2.289       2.009    
        1.806       1.566       1.325       1.114      0.9357      0.7101      0.4266      0.2230      9.2866E-02   0.000    
  48    10.00       9.880       9.759       9.623       9.485       9.357       9.211       9.054       8.889       8.741    
        8.608       8.465       8.287       8.107       7.929       7.738       7.514       7.232       6.868       6.420    
        6.003       5.699       5.439       5.257       5.122       4.972       4.859       4.768       4.651       4.450    
        4.250       4.076       3.920       3.789       3.601       3.317       2.945       2.596       2.284       2.038    
        1.819       1.591       1.374       1.135      0.8674      0.5768      0.3645      0.2162      9.7683E-02   0.000    
  49    10.00       9.869       9.737       9.604       9.491       9.358       9.203       9.050       8.916       8.761    
        8.602       8.421       8.246       8.096       7.892       7.706       7.520       7.204       6.845       6.489    
        6.049       5.710       5.452       5.292       5.134       4.972       4.884       4.796       4.606       4.366    
        4.195       4.056       3.944       3.772       3.554       3.301       2.929       2.581       2.337       2.075    
        1.818       1.608       1.377       1.096      0.7679      0.5142      0.3646      0.2353      0.1207       0.000    
  50    10.00       9.874       9.742       9.606       9.483       9.352       9.215       9.063       8.922       8.784    
        8.588       8.400       8.240       8.038       7.831       7.688       7.511       7.267       6.911       6.559    
        6.110       5.684       5.459       5.297       5.131       4.999       4.894       4.775       4.551       4.323    
        4.181       4.068       3.936       3.758       3.556       3.315       2.939       2.582       2.345       2.109    
        1.864       1.600       1.340       1.039      0.7158      0.5261      0.3923      0.2659      0.1604       0.000    

 HEAD WILL BE SAVED ON UNIT   51 AT END OF TIME STEP  36, STRESS PERIOD    2

 DRAWDOWN WILL BE SAVED ON UNIT   52 AT END OF TIME STEP  36, STRESS PERIOD    2
1
  VOLUMETRIC BUDGET FOR ENTIRE MODEL AT END OF TIME STEP 36 IN STRESS PERIOD   2
  ------------------------------------------------------------------------------

     CUMULATIVE VOLUMES      L**3       RATES FOR THIS TIME STEP      L**3/T
     ------------------                 ------------------------

           IN:                                      IN:
           ---                                      ---
             STORAGE =       17947.2773               STORAGE =         493.3978
       CONSTANT HEAD =       13831.6836         CONSTANT HEAD =         378.7161
               WELLS =           0.0000                 WELLS =           0.0000

            TOTAL IN =       31778.9609              TOTAL IN =         872.1139

          OUT:                                     OUT:
          ----                                     ----
             STORAGE =       1.1143E-02               STORAGE =           0.0000
       CONSTANT HEAD =       13778.9492         CONSTANT HEAD =         372.1140
               WELLS =       18000.0000                 WELLS =         500.0000

           TOTAL OUT =       31778.9609             TOTAL OUT =         872.1140

            IN - OUT =           0.0000              IN - OUT =      -1.2207E-04

 PERCENT DISCREPANCY =           0.00     PERCENT DISCREPANCY =           0.00






          TIME SUMMARY AT END OF TIME STEP  36 IN STRESS PERIOD    2
                    SECONDS     MINUTES      HOURS       DAYS        YEARS
                    -----------------------------------------------------------
   TIME STEP LENGTH  86400.      1440.0      24.000      1.0000     2.73785E-03
 STRESS PERIOD TIME 3.11040E+06  51840.      864.00      36.000     9.85626E-02
         TOTAL TIME 3.19680E+06  53280.      888.00      37.000     0.10130    
1
 
 SOLVING FOR HEAD 

 OUTPUT CONTROL FOR STRESS PERIOD    2   TIME STEP  37
    SAVE HEAD FOR ALL LAYERS
    SAVE DRAWDOWN FOR ALL LAYERS
    SAVE BUDGET
    PRINT HEAD FOR ALL LAYERS
    PRINT BUDGET
 UBDSV1 SAVING "         STORAGE" ON UNIT  53 AT TIME STEP 37, STRESS PERIOD   2
 UBDSV2 SAVING "   CONSTANT HEAD" ON UNIT  53 AT TIME STEP 37, STRESS PERIOD   2
 UBDSV1 SAVING "FLOW RIGHT FACE " ON UNIT  53 AT TIME STEP 37, STRESS PERIOD   2
 UBDSV1 SAVING "FLOW FRONT FACE " ON UNIT  53 AT TIME STEP 37, STRESS PERIOD   2
1
              HEAD IN LAYER   1 AT END OF TIME STEP  37 IN STRESS PERIOD    2
  ---------------------------------------------------------------------------

            1           2           3           4           5           6           7           8           9          10
           11          12          13          14          15          16          17          18          19          20
           21          22          23          24          25          26          27          28          29          30
           31          32          33          34          35          36          37          38          39          40
           41          42          43          44          45          46          47          48          49          50
 ........................................................................................................................
   1    10.00       9.953       9.906       9.851       9.807       9.770       9.721       9.653       9.579       9.510    
        9.359       9.170       9.031       8.875       8.710       8.542       8.386       8.208       7.968       7.730    
        7.568       7.382       7.137       6.888       6.666       6.473       6.197       5.945       5.767       5.580    
        5.418       5.313       5.197       5.065       4.938       4.781       4.612       4.383       4.122       3.835    
        3.467       3.093       2.603       2.069       1.669       1.380       1.164      0.9181      0.5389       0.000    
   2    10.00       9.948       9.898       9.851       9.814       9.778       9.724       9.654       9.586       9.494    
        9.346       9.177       9.020       8.879       8.725       8.553       8.368       8.184       7.961       7.721    
        7.544       7.392       7.130       6.862       6.664       6.446       6.180       5.939       5.735       5.559    
        5.421       5.324       5.226       5.085       4.937       4.780       4.586       4.373       4.119       3.793    
        3.449       3.130       2.616       2.085       1.730       1.472       1.224      0.9483      0.5724       0.000    
   3    10.00       9.940       9.898       9.865       9.830       9.793       9.734       9.652       9.569       9.469    
        9.335       9.185       9.034       8.891       8.709       8.493       8.313       8.154       7.949       7.738    
        7.557       7.340       7.083       6.846       6.632       6.387       6.133       5.896       5.686       5.553    
        5.440       5.345       5.247       5.092       4.936       4.770       4.578       4.340       4.056       3.807    
        3.501       3.066       2.565       2.183       1.880       1.581       1.275      0.9611      0.5424       0.000    
   4    10.00       9.940       9.903       9.873       9.849       9.810       9.742       9.647       9.549       9.449    
        9.322       9.187       9.036       8.857       8.634       8.434       8.305       8.126       7.928       7.764    
        7.516       7.242       7.016       6.806       6.598       6.306       6.026       5.837       5.691       5.577    
        5.474       5.374       5.268       5.088       4.896       4.746       4.544       4.297       4.054       3.834    
        3.487       3.008       2.628       2.307       1.980       1.640       1.271      0.9049      0.4636       0.000    
   5    10.00       9.945       9.910       9.881       9.859       9.819       9.748       9.640       9.530       9.431    
        9.322       9.184       8.991       8.782       8.593       8.435       8.275       8.108       7.922       7.692    
        7.405       7.179       6.991       6.778       6.513       6.211       5.980       5.844       5.724       5.608    
        5.490       5.369       5.248       5.076       4.880       4.699       4.517       4.321       4.100       3.809    
        3.415       3.049       2.723       2.399       2.042       1.646       1.183      0.7622      0.3946       0.000    
   6    10.00       9.954       9.921       9.892       9.862       9.818       9.742       9.625       9.530       9.423    
        9.302       9.132       8.921       8.747       8.573       8.393       8.231       8.082       7.875       7.614    
        7.360       7.143       6.952       6.690       6.403       6.173       5.984       5.856       5.725       5.606    
        5.501       5.369       5.216       5.039       4.849       4.693       4.533       4.356       4.122       3.808    
        3.462       3.108       2.775       2.446       2.059       1.579       1.081      0.7169      0.3690       0.000    
   7    10.00       9.960       9.931       9.901       9.869       9.815       9.714       9.602       9.503       9.372    
        9.248       9.067       8.876       8.698       8.520       8.339       8.180       8.044       7.808       7.530    
        7.301       7.082       6.869       6.615       6.370       6.160       5.993       5.843       5.704       5.608    
        5.501       5.356       5.194       5.013       4.849       4.710       4.562       4.379       4.138       3.851    
        3.507       3.141       2.795       2.432       2.050       1.546       1.034      0.6830      0.3232       0.000    
   8    10.00       9.967       9.941       9.908       9.871       9.786       9.662       9.556       9.433       9.308    
        9.172       8.988       8.826       8.645       8.447       8.271       8.134       7.972       7.751       7.481    
        7.217       7.015       6.838       6.578       6.325       6.137       5.950       5.789       5.691       5.600    
        5.473       5.328       5.191       5.030       4.856       4.710       4.598       4.456       4.219       3.888    
        3.510       3.184       2.860       2.437       2.010       1.447      0.9582      0.6691      0.3096       0.000    
   9    10.00       9.974       9.945       9.908       9.845       9.733       9.603       9.479       9.372       9.243    
        9.083       8.919       8.759       8.586       8.383       8.217       8.089       7.900       7.683       7.410    
        7.180       6.980       6.733       6.469       6.255       6.088       5.899       5.761       5.666       5.562    
        5.446       5.315       5.185       5.044       4.894       4.753       4.636       4.509       4.263       3.904    
        3.555       3.264       2.922       2.513       1.882       1.246      0.9131      0.5659      0.2159       0.000    
  10    10.00       9.974       9.944       9.893       9.797       9.664       9.519       9.424       9.322       9.171    
        9.031       8.869       8.710       8.525       8.338       8.189       8.018       7.822       7.593       7.373    
        7.148       6.846       6.592       6.383       6.200       6.049       5.876       5.733       5.639       5.550    
        5.427       5.286       5.168       5.038       4.905       4.807       4.690       4.542       4.261       3.904    
        3.629       3.372       2.978       2.361       1.631       1.170      0.8289      0.5061      0.2524       0.000    
  11    10.00       9.974       9.934       9.855       9.748       9.599       9.472       9.392       9.271       9.142    
        9.008       8.839       8.649       8.451       8.294       8.135       7.976       7.766       7.545       7.328    
        7.012       6.721       6.516       6.327       6.149       5.983       5.820       5.706       5.626       5.539    
        5.399       5.266       5.167       5.049       4.939       4.829       4.696       4.536       4.271       3.984    
        3.693       3.358       2.929       2.249       1.565       1.101      0.7770      0.5894      0.3255       0.000    
  12    10.00       9.972       9.916       9.815       9.675       9.528       9.427       9.347       9.242       9.126    
        8.980       8.801       8.611       8.435       8.274       8.099       7.917       7.704       7.480       7.189    
        6.877       6.655       6.453       6.261       6.066       5.900       5.783       5.695       5.594       5.485    
        5.361       5.259       5.172       5.077       4.978       4.869       4.724       4.528       4.281       4.021    
        3.710       3.344       2.757       1.993       1.411       1.084      0.8630      0.6256      0.3565       0.000    
  13    10.00       9.963       9.876       9.739       9.593       9.467       9.386       9.316       9.227       9.115    
        8.962       8.776       8.601       8.460       8.275       8.060       7.847       7.617       7.368       7.085    
        6.811       6.571       6.354       6.155       5.968       5.846       5.767       5.649       5.520       5.422    
        5.341       5.259       5.179       5.099       5.005       4.908       4.775       4.550       4.296       3.988    
        3.630       3.168       2.488       1.869       1.445       1.166      0.9075      0.6272      0.3098       0.000    
  14    10.00       9.933       9.809       9.658       9.523       9.424       9.370       9.306       9.221       9.099    
        8.930       8.772       8.628       8.481       8.274       8.021       7.792       7.532       7.255       6.960    
        6.695       6.456       6.240       6.044       5.896       5.812       5.718       5.576       5.465       5.389    
        5.329       5.253       5.184       5.108       5.023       4.944       4.789       4.559       4.288       3.904    
        3.482       2.939       2.415       1.962       1.539       1.211      0.9237      0.6278      0.2796       0.000    
  15    10.00       9.875       9.738       9.603       9.495       9.420       9.360       9.300       9.216       9.103    
        8.954       8.800       8.660       8.455       8.215       7.974       7.717       7.448       7.118       6.803    
        6.556       6.324       6.120       5.967       5.855       5.764       5.653       5.519       5.427       5.371    
        5.305       5.241       5.187       5.116       5.035       4.949       4.787       4.566       4.227       3.812    
        3.374       2.884       2.458       1.990       1.633       1.283      0.9351      0.6218      0.2550       0.000    
  16    10.00       9.855       9.706       9.583       9.491       9.422       9.360       9.305       9.224       9.108    
        8.969       8.822       8.651       8.395       8.133       7.934       7.683       7.322       6.945       6.649    
        6.392       6.197       6.031       5.899       5.775       5.692       5.571       5.460       5.388       5.324    
        5.275       5.232       5.174       5.109       5.037       4.939       4.790       4.524       4.153       3.774    
        3.397       2.924       2.443       2.029       1.693       1.325      0.9321      0.5571      0.2097       0.000    
  17    10.00       9.836       9.687       9.588       9.506       9.436       9.376       9.314       9.226       9.118    
        8.989       8.807       8.574       8.300       8.080       7.891       7.589       7.184       6.798       6.511    
        6.302       6.083       5.898       5.761       5.658       5.555       5.448       5.376       5.315       5.276    
        5.254       5.213       5.153       5.088       5.014       4.910       4.734       4.502       4.200       3.800    
        3.368       2.868       2.423       2.057       1.712       1.335      0.9518      0.5803      0.2453       0.000    
  18    10.00       9.827       9.687       9.602       9.527       9.461       9.401       9.326       9.240       9.124    
        8.970       8.756       8.499       8.266       8.050       7.776       7.425       7.055       6.714       6.431    
        6.174       5.893       5.731       5.617       5.526       5.411       5.340       5.279       5.239       5.233    
        5.218       5.182       5.122       5.049       4.973       4.861       4.690       4.500       4.237       3.866    
        3.304       2.771       2.407       2.059       1.765       1.369      0.9461      0.5687      0.2449       0.000    
  19    10.00       9.835       9.718       9.630       9.552       9.484       9.414       9.345       9.266       9.132    
        8.952       8.723       8.468       8.210       7.926       7.629       7.303       6.945       6.602       6.301    
        6.003       5.754       5.624       5.534       5.408       5.305       5.244       5.190       5.177       5.173    
        5.168       5.141       5.072       5.003       4.937       4.849       4.685       4.476       4.210       3.775    
        3.209       2.755       2.392       2.050       1.721       1.312      0.9083      0.5651      0.2662       0.000    
  20    10.00       9.844       9.744       9.668       9.592       9.512       9.429       9.355       9.275       9.140    
        8.944       8.707       8.411       8.076       7.750       7.507       7.178       6.792       6.489       6.189    
        5.922       5.715       5.556       5.420       5.262       5.189       5.148       5.119       5.119       5.116    
        5.115       5.080       5.019       4.973       4.915       4.822       4.636       4.423       4.119       3.631    
        3.143       2.781       2.361       1.970       1.612       1.210      0.9108      0.5609      0.2487       0.000    
  21    10.00       9.867       9.777       9.700       9.617       9.541       9.450       9.369       9.283       9.131    
        8.921       8.633       8.265       7.872       7.567       7.343       7.033       6.749       6.464       6.139    
        5.884       5.656       5.458       5.203       5.070       5.032       4.975       5.007       5.038       5.034    
        5.029       4.995       4.971       4.940       4.887       4.758       4.571       4.385       3.942       3.436    
        3.073       2.682       2.255       1.892       1.513       1.161      0.8245      0.4941      0.2482       0.000    
  22    10.00       9.895       9.802       9.718       9.637       9.566       9.462       9.358       9.258       9.102    
        8.845       8.484       8.069       7.699       7.435       7.201       6.962       6.757       6.443       6.125    
        5.857       5.533       5.179       4.910       4.809       4.713       4.725       4.824       4.864       4.886    
        4.902       4.895       4.904       4.901       4.849       4.710       4.517       4.175       3.674       3.350    
        2.961       2.541       2.157       1.809       1.486       1.069      0.7154      0.4738      0.2663       0.000    
  23    10.00       9.897       9.807       9.731       9.646       9.551       9.435       9.340       9.253       9.057    
        8.742       8.354       7.974       7.650       7.380       7.181       6.956       6.687       6.386       6.132    
        5.760       5.284       4.905       4.630       4.228       4.229       4.444       4.566       4.655       4.739    
        4.777       4.804       4.832       4.845       4.793       4.649       4.365       3.968       3.558       3.163    
        2.794       2.447       2.079       1.803       1.395      0.9714      0.6958      0.4555      0.2365       0.000    
  24    10.00       9.919       9.817       9.718       9.620       9.511       9.407       9.326       9.228       8.997    
        8.639       8.272       7.957       7.675       7.418       7.157       6.881       6.635       6.397       6.098    
        5.653       5.181       4.730       3.903       3.018       3.536       4.034       4.325       4.487       4.619    
        4.690       4.733       4.772       4.769       4.712       4.529       4.211       3.881       3.429       3.008    
        2.719       2.386       2.038       1.685       1.248      0.9012      0.6693      0.4267      0.1882       0.000    
  25    10.00       9.912       9.794       9.672       9.558       9.460       9.380       9.298       9.177       8.938    
        8.562       8.220       7.979       7.716       7.418       7.148       6.890       6.675       6.454       6.072    
        5.561       5.096       4.374       3.027      0.2087       2.931       3.718       4.176       4.417       4.555    
        4.636       4.689       4.720       4.703       4.632       4.432       4.094       3.711       3.343       2.984    
        2.653       2.292       1.896       1.525       1.110      0.8276      0.6666      0.4148      0.1537       0.000    
  26    10.00       9.890       9.738       9.602       9.510       9.430       9.351       9.251       9.108       8.812    
        8.461       8.222       7.990       7.729       7.450       7.191       6.948       6.737       6.460       6.053    
        5.605       5.092       4.461       3.734       3.066       3.423       3.891       4.214       4.410       4.537    
        4.613       4.665       4.678       4.648       4.551       4.317       3.946       3.636       3.339       2.953    
        2.608       2.200       1.746       1.348       1.010      0.8101      0.6306      0.3698      0.1574       0.000    
  27    10.00       9.866       9.704       9.576       9.499       9.395       9.290       9.164       8.971       8.689    
        8.441       8.228       7.993       7.738       7.464       7.259       7.093       6.809       6.461       6.046    
        5.665       5.295       4.789       4.314       3.938       3.999       4.179       4.337       4.461       4.550    
        4.627       4.666       4.661       4.606       4.478       4.213       3.920       3.648       3.304       2.940    
        2.584       2.091       1.572       1.199      0.9636      0.7970      0.5998      0.3910      0.1885       0.000    
  28    10.00       9.848       9.730       9.586       9.454       9.326       9.210       9.060       8.868       8.648    
        8.443       8.253       8.019       7.734       7.492       7.328       7.143       6.829       6.424       6.057    
        5.789       5.514       5.120       4.752       4.516       4.439       4.434       4.482       4.559       4.629    
        4.673       4.677       4.654       4.575       4.411       4.173       3.940       3.622       3.264       2.900    
        2.466       2.003       1.488       1.118      0.9531      0.7939      0.6184      0.4084      0.1893       0.000    
  29    10.00       9.853       9.705       9.554       9.395       9.271       9.140       8.973       8.810       8.636    
        8.453       8.263       8.035       7.794       7.587       7.394       7.147       6.797       6.427       6.143    
        5.917       5.678       5.356       5.031       4.838       4.732       4.666       4.662       4.694       4.711    
        4.708       4.691       4.647       4.542       4.358       4.157       3.944       3.648       3.253       2.792    
        2.396       1.904       1.392       1.101      0.9561      0.7995      0.6137      0.3989      0.1983       0.000    
  30    10.00       9.832       9.683       9.500       9.338       9.225       9.084       8.937       8.811       8.654    
        8.466       8.260       8.051       7.859       7.675       7.457       7.141       6.815       6.521       6.254    
        6.061       5.826       5.535       5.254       5.021       4.925       4.860       4.830       4.802       4.774    
        4.741       4.706       4.639       4.505       4.340       4.184       3.971       3.591       3.105       2.638    
        2.239       1.790       1.400       1.131      0.9780      0.8014      0.6029      0.4182      0.2051       0.000    
  31    10.00       9.809       9.637       9.462       9.316       9.198       9.065       8.934       8.809       8.654    
        8.467       8.259       8.078       7.919       7.745       7.497       7.186       6.905       6.677       6.442    
        6.238       5.975       5.688       5.451       5.214       5.057       4.988       4.922       4.873       4.819    
        4.774       4.715       4.624       4.496       4.339       4.166       3.831       3.411       3.009       2.556    
        2.179       1.732       1.354       1.160      0.9961      0.8299      0.6233      0.4187      0.1984       0.000    
  32    10.00       9.794       9.609       9.459       9.336       9.218       9.078       8.929       8.776       8.630    
        8.444       8.264       8.102       7.925       7.762       7.551       7.311       7.103       6.869       6.628    
        6.423       6.177       5.889       5.636       5.389       5.167       5.077       4.994       4.923       4.846    
        4.784       4.728       4.609       4.454       4.310       4.070       3.659       3.267       2.916       2.504    
        2.067       1.652       1.375       1.226       1.047      0.8371      0.6186      0.3978      0.1984       0.000    
  33    10.00       9.788       9.629       9.508       9.385       9.248       9.079       8.913       8.748       8.580    
        8.425       8.273       8.113       7.945       7.764       7.600       7.425       7.248       7.056       6.821    
        6.582       6.351       6.111       5.818       5.514       5.263       5.131       5.046       4.956       4.862    
        4.792       4.708       4.579       4.434       4.226       3.898       3.481       3.152       2.817       2.340    
        1.945       1.676       1.456       1.279       1.074      0.8536      0.5860      0.3500      0.1577       0.000    
  34    10.00       9.806       9.676       9.563       9.426       9.256       9.078       8.883       8.701       8.560    
        8.421       8.283       8.139       7.964       7.804       7.646       7.495       7.354       7.170       6.930    
        6.705       6.497       6.260       5.953       5.619       5.338       5.170       5.068       4.970       4.865    
        4.773       4.681       4.555       4.373       4.119       3.716       3.314       3.024       2.629       2.212    
        1.971       1.793       1.582       1.353       1.085      0.7741      0.4734      0.2802      0.1161       0.000    
  35    10.00       9.838       9.721       9.605       9.458       9.268       9.064       8.846       8.673       8.552    
        8.460       8.320       8.159       7.973       7.802       7.690       7.579       7.434       7.243       7.015    
        6.801       6.595       6.375       6.029       5.648       5.379       5.196       5.082       4.969       4.849    
        4.759       4.652       4.504       4.261       3.865       3.450       3.186       2.889       2.489       2.241    
        2.074       1.873       1.660       1.438       1.098      0.6581      0.3635      0.2389      0.1212       0.000    
  36    10.00       9.857       9.755       9.644       9.488       9.260       9.010       8.806       8.682       8.590    
        8.463       8.302       8.154       7.989       7.840       7.728       7.622       7.492       7.342       7.130    
        6.907       6.691       6.418       6.040       5.667       5.395       5.222       5.087       4.944       4.828    
        4.722       4.587       4.347       3.983       3.624       3.344       3.101       2.791       2.478       2.315    
        2.145       1.965       1.751       1.463       1.001      0.5539      0.3413      0.2184      0.1122       0.000    
  37    10.00       9.872       9.793       9.673       9.464       9.214       8.994       8.835       8.732       8.621    
        8.455       8.284       8.155       8.013       7.873       7.766       7.667       7.547       7.387       7.202    
        7.020       6.782       6.436       6.078       5.720       5.412       5.200       5.029       4.896       4.777    
        4.649       4.446       4.085       3.760       3.515       3.277       3.028       2.787       2.566       2.385    
        2.222       2.020       1.776       1.398      0.9167      0.5337      0.3195      0.2030      0.1018       0.000    
  38    10.00       9.891       9.795       9.664       9.446       9.189       9.002       8.884       8.778       8.645    
        8.469       8.289       8.163       8.031       7.892       7.785       7.698       7.592       7.434       7.274    
        7.104       6.825       6.429       6.038       5.677       5.373       5.139       4.949       4.820       4.708    
        4.539       4.202       3.889       3.692       3.453       3.219       3.043       2.843       2.641       2.467    
        2.276       2.000       1.691       1.283      0.8046      0.5110      0.3594      0.2239      0.1005       0.000    
  39    10.00       9.889       9.780       9.643       9.432       9.199       9.031       8.926       8.793       8.646    
        8.503       8.322       8.178       8.052       7.918       7.803       7.705       7.599       7.472       7.326    
        7.123       6.818       6.401       5.961       5.588       5.303       5.036       4.838       4.745       4.632    
        4.360       4.023       3.838       3.614       3.394       3.231       3.087       2.906       2.711       2.549    
        2.272       1.882       1.520       1.078      0.7172      0.5534      0.4119      0.2682      0.1380       0.000    
  40    10.00       9.880       9.784       9.644       9.450       9.254       9.089       8.950       8.793       8.658    
        8.550       8.373       8.190       8.062       7.938       7.807       7.697       7.614       7.501       7.320    
        7.082       6.726       6.300       5.885       5.508       5.208       4.901       4.749       4.665       4.513    
        4.268       4.027       3.778       3.550       3.398       3.260       3.124       2.955       2.776       2.564    
        2.189       1.765       1.373       1.016      0.7692      0.6005      0.4596      0.3243      0.1592       0.000    
  41    10.00       9.896       9.819       9.682       9.483       9.278       9.121       8.995       8.841       8.679    
        8.551       8.387       8.217       8.096       7.951       7.794       7.701       7.609       7.458       7.255    
        7.006       6.656       6.227       5.824       5.448       5.044       4.764       4.685       4.591       4.479    
        4.290       4.000       3.753       3.576       3.426       3.304       3.155       2.994       2.809       2.479    
        2.040       1.628       1.288       1.026      0.8121      0.6555      0.5050      0.3567      0.1878       0.000    
  42    10.00       9.922       9.837       9.705       9.532       9.336       9.157       9.028       8.888       8.708    
        8.542       8.385       8.239       8.124       7.970       7.804       7.690       7.563       7.396       7.163    
        6.874       6.489       6.113       5.711       5.219       4.866       4.727       4.664       4.585       4.467    
        4.246       3.993       3.765       3.587       3.468       3.338       3.207       3.033       2.739       2.300    
        1.918       1.611       1.317       1.021      0.8222      0.6892      0.5448      0.3713      0.2060       0.000    
  43    10.00       9.938       9.846       9.710       9.539       9.375       9.216       9.070       8.895       8.708    
        8.555       8.396       8.252       8.144       7.998       7.809       7.656       7.510       7.282       6.985    
        6.704       6.333       5.988       5.525       5.063       4.836       4.729       4.656       4.582       4.458    
        4.248       4.019       3.801       3.629       3.516       3.388       3.215       2.967       2.536       2.149    
        1.911       1.641       1.330       1.023      0.8138      0.6908      0.5795      0.4014      0.1881       0.000    
  44    10.00       9.931       9.852       9.710       9.553       9.436       9.274       9.073       8.874       8.718    
        8.565       8.404       8.277       8.163       7.991       7.786       7.609       7.435       7.165       6.871    
        6.536       6.168       5.801       5.340       4.998       4.831       4.739       4.677       4.596       4.440    
        4.227       4.044       3.853       3.695       3.578       3.401       3.171       2.816       2.381       2.126    
        1.909       1.626       1.317       1.037      0.8233      0.6925      0.5798      0.3931      0.1732       0.000    
  45    10.00       9.916       9.821       9.706       9.592       9.440       9.268       9.075       8.878       8.720    
        8.560       8.415       8.302       8.170       7.980       7.760       7.561       7.364       7.073       6.728    
        6.345       5.958       5.564       5.228       4.994       4.853       4.764       4.698       4.594       4.467    
        4.284       4.077       3.906       3.742       3.575       3.388       3.137       2.759       2.383       2.086    
        1.839       1.573       1.285       1.035      0.8489      0.7405      0.5722      0.3406      0.1552       0.000    
  46    10.00       9.899       9.800       9.708       9.578       9.402       9.235       9.077       8.882       8.712    
        8.571       8.435       8.321       8.161       7.958       7.761       7.550       7.293       6.979       6.606    
        6.157       5.774       5.463       5.209       5.031       4.907       4.797       4.707       4.625       4.483    
        4.288       4.108       3.940       3.751       3.585       3.408       3.126       2.691       2.297       2.033    
        1.802       1.547       1.277       1.058      0.9137      0.7742      0.5187      0.2550      0.1109       0.000    
  47    10.00       9.892       9.791       9.664       9.512       9.368       9.224       9.053       8.874       8.723    
        8.593       8.472       8.310       8.136       7.953       7.761       7.528       7.228       6.936       6.484    
        5.999       5.702       5.434       5.236       5.070       4.949       4.837       4.728       4.633       4.486    
        4.282       4.104       3.934       3.756       3.613       3.399       3.007       2.618       2.289       2.009    
        1.806       1.566       1.325       1.114      0.9356      0.7101      0.4266      0.2230      9.2862E-02   0.000    
  48    10.00       9.879       9.759       9.623       9.485       9.357       9.211       9.054       8.889       8.740    
        8.608       8.464       8.286       8.107       7.928       7.737       7.514       7.232       6.868       6.420    
        6.003       5.698       5.438       5.256       5.122       4.971       4.858       4.767       4.649       4.449    
        4.249       4.076       3.920       3.788       3.600       3.317       2.945       2.596       2.284       2.038    
        1.819       1.590       1.374       1.135      0.8674      0.5768      0.3645      0.2162      9.7680E-02   0.000    
  49    10.00       9.869       9.737       9.603       9.491       9.358       9.203       9.049       8.916       8.761    
        8.602       8.421       8.246       8.096       7.892       7.706       7.519       7.204       6.845       6.489    
        6.049       5.710       5.451       5.292       5.133       4.971       4.883       4.796       4.606       4.365    
        4.194       4.055       3.943       3.772       3.553       3.301       2.929       2.581       2.337       2.075    
        1.818       1.608       1.377       1.095      0.7678      0.5142      0.3646      0.2353      0.1207       0.000    
  50    10.00       9.874       9.742       9.606       9.483       9.352       9.215       9.063       8.922       8.784    
        8.588       8.400       8.239       8.037       7.830       7.688       7.511       7.267       6.911       6.559    
        6.110       5.683       5.458       5.296       5.130       4.998       4.893       4.775       4.550       4.322    
        4.181       4.067       3.935       3.758       3.556       3.315       2.939       2.582       2.345       2.109    
        1.864       1.600       1.340       1.039      0.7158      0.5261      0.3923      0.2659      0.1603       0.000    

 HEAD WILL BE SAVED ON UNIT   51 AT END OF TIME STEP  37, STRESS PERIOD    2

 DRAWDOWN WILL BE SAVED ON UNIT   52 AT END OF TIME STEP  37, STRESS PERIOD    2
1
  VOLUMETRIC BUDGET FOR ENTIRE MODEL AT END OF TIME STEP 37 IN STRESS PERIOD   2
  ------------------------------------------------------------------------------

     CUMULATIVE VOLUMES      L**3       RATES FOR THIS TIME STEP      L**3/T
     ------------------                 ------------------------

           IN:                                      IN:
           ---                                      ---
             STORAGE =       18440.0352               STORAGE =         492.7580
       CONSTANT HEAD =       14210.9863         CONSTANT HEAD =         379.3030
               WELLS =           0.0000                 WELLS =           0.0000

            TOTAL IN =       32651.0215              TOTAL IN =         872.0610

          OUT:                                     OUT:
          ----                                     ----
             STORAGE =       1.1143E-02               STORAGE =           0.0000
       CONSTANT HEAD =       14151.0098         CONSTANT HEAD =         372.0608
               WELLS =       18500.0000                 WELLS =         500.0000

           TOTAL OUT =       32651.0215             TOTAL OUT =         872.0608

            IN - OUT =           0.0000              IN - OUT =       2.4414E-04

 PERCENT DISCREPANCY =           0.00     PERCENT DISCREPANCY =           0.00






          TIME SUMMARY AT END OF TIME STEP  37 IN STRESS PERIOD    2
                    SECONDS     MINUTES      HOURS       DAYS        YEARS
                    -----------------------------------------------------------
   TIME STEP LENGTH  86400.      1440.0      24.000      1.0000     2.73785E-03
 STRESS PERIOD TIME 3.19680E+06  53280.      888.00      37.000     0.10130    
         TOTAL TIME 3.28320E+06  54720.      912.00      38.000     0.10404    
1
 
 SOLVING FOR HEAD 

 OUTPUT CONTROL FOR STRESS PERIOD    2   TIME STEP  38
    SAVE HEAD FOR ALL LAYERS
    SAVE DRAWDOWN FOR ALL LAYERS
    SAVE BUDGET
    PRINT HEAD FOR ALL LAYERS
    PRINT BUDGET
 UBDSV1 SAVING "         STORAGE" ON UNIT  53 AT TIME STEP 38, STRESS PERIOD   2
 UBDSV2 SAVING "   CONSTANT HEAD" ON UNIT  53 AT TIME STEP 38, STRESS PERIOD   2
 UBDSV1 SAVING "FLOW RIGHT FACE " ON UNIT  53 AT TIME STEP 38, STRESS PERIOD   2
 UBDSV1 SAVING "FLOW FRONT FACE " ON UNIT  53 AT TIME STEP 38, STRESS PERIOD   2
1
              HEAD IN LAYER   1 AT END OF TIME STEP  38 IN STRESS PERIOD    2
  ---------------------------------------------------------------------------

            1           2           3           4           5           6           7           8           9          10
           11          12          13          14          15          16          17          18          19          20
           21          22          23          24          25          26          27          28          29          30
           31          32          33          34          35          36          37          38          39          40
           41          42          43          44          45          46          47          48          49          50
 ........................................................................................................................
   1    10.00       9.953       9.906       9.851       9.807       9.770       9.721       9.653       9.578       9.510    
        9.359       9.170       9.030       8.875       8.709       8.541       8.386       8.207       7.967       7.729    
        7.566       7.380       7.135       6.886       6.664       6.471       6.194       5.943       5.765       5.577    
        5.415       5.310       5.194       5.063       4.936       4.779       4.610       4.381       4.120       3.834    
        3.466       3.093       2.603       2.069       1.668       1.380       1.164      0.9180      0.5389       0.000    
   2    10.00       9.948       9.898       9.851       9.814       9.778       9.723       9.654       9.586       9.493    
        9.346       9.177       9.020       8.878       8.725       8.552       8.367       8.183       7.960       7.720    
        7.543       7.390       7.128       6.860       6.662       6.443       6.177       5.937       5.732       5.556    
        5.418       5.321       5.223       5.082       4.934       4.778       4.584       4.371       4.118       3.792    
        3.448       3.129       2.615       2.085       1.729       1.472       1.223      0.9481      0.5723       0.000    
   3    10.00       9.940       9.898       9.865       9.830       9.793       9.734       9.651       9.568       9.468    
        9.334       9.184       9.033       8.890       8.708       8.492       8.312       8.153       7.948       7.737    
        7.555       7.338       7.081       6.844       6.629       6.384       6.130       5.893       5.682       5.550    
        5.437       5.342       5.244       5.089       4.933       4.768       4.576       4.338       4.055       3.805    
        3.500       3.065       2.564       2.183       1.880       1.580       1.274      0.9609      0.5423       0.000    
   4    10.00       9.940       9.903       9.873       9.849       9.810       9.742       9.647       9.549       9.449    
        9.322       9.187       9.036       8.856       8.633       8.433       8.304       8.125       7.926       7.762    
        7.514       7.240       7.014       6.803       6.595       6.303       6.022       5.833       5.688       5.573    
        5.470       5.371       5.265       5.085       4.893       4.744       4.541       4.295       4.052       3.833    
        3.486       3.007       2.628       2.306       1.980       1.640       1.271      0.9047      0.4635       0.000    
   5    10.00       9.945       9.910       9.881       9.859       9.819       9.748       9.639       9.530       9.430    
        9.322       9.183       8.990       8.781       8.592       8.433       8.273       8.106       7.920       7.690    
        7.403       7.176       6.988       6.775       6.510       6.208       5.976       5.840       5.720       5.604    
        5.486       5.365       5.244       5.072       4.877       4.696       4.514       4.319       4.097       3.807    
        3.414       3.048       2.723       2.398       2.042       1.645       1.182      0.7621      0.3946       0.000    
   6    10.00       9.954       9.920       9.892       9.862       9.817       9.742       9.625       9.529       9.423    
        9.302       9.131       8.920       8.746       8.572       8.392       8.229       8.080       7.873       7.612    
        7.357       7.140       6.949       6.686       6.399       6.169       5.980       5.852       5.721       5.601    
        5.497       5.364       5.212       5.035       4.845       4.690       4.530       4.353       4.119       3.806    
        3.461       3.107       2.774       2.445       2.059       1.579       1.081      0.7168      0.3690       0.000    
   7    10.00       9.960       9.931       9.901       9.869       9.815       9.713       9.601       9.503       9.371    
        9.248       9.066       8.875       8.697       8.518       8.337       8.178       8.042       7.805       7.527    
        7.298       7.078       6.865       6.610       6.365       6.155       5.988       5.838       5.698       5.603    
        5.496       5.351       5.189       5.009       4.844       4.706       4.559       4.375       4.135       3.849    
        3.505       3.140       2.794       2.431       2.050       1.546       1.034      0.6828      0.3231       0.000    
   8    10.00       9.967       9.941       9.908       9.871       9.785       9.662       9.556       9.433       9.308    
        9.171       8.986       8.824       8.643       8.445       8.268       8.131       7.969       7.747       7.477    
        7.212       7.011       6.833       6.573       6.319       6.131       5.943       5.782       5.685       5.594    
        5.467       5.322       5.185       5.024       4.851       4.706       4.593       4.452       4.216       3.885    
        3.508       3.183       2.859       2.436       2.010       1.447      0.9581      0.6690      0.3096       0.000    
   9    10.00       9.974       9.945       9.908       9.845       9.733       9.602       9.479       9.371       9.242    
        9.082       8.918       8.757       8.584       8.380       8.214       8.086       7.897       7.678       7.406    
        7.174       6.975       6.727       6.462       6.248       6.080       5.891       5.753       5.658       5.555    
        5.439       5.308       5.178       5.038       4.888       4.748       4.631       4.505       4.260       3.901    
        3.553       3.262       2.920       2.512       1.881       1.246      0.9129      0.5658      0.2158       0.000    
  10    10.00       9.974       9.943       9.893       9.797       9.663       9.519       9.423       9.321       9.170    
        9.029       8.868       8.708       8.522       8.334       8.185       8.014       7.818       7.588       7.367    
        7.141       6.839       6.584       6.375       6.192       6.041       5.867       5.724       5.630       5.542    
        5.419       5.278       5.161       5.031       4.898       4.801       4.684       4.537       4.256       3.900    
        3.626       3.370       2.977       2.360       1.630       1.170      0.8287      0.5060      0.2524       0.000    
  11    10.00       9.974       9.934       9.855       9.747       9.599       9.471       9.391       9.270       9.141    
        9.006       8.837       8.646       8.448       8.290       8.131       7.972       7.761       7.539       7.322    
        7.004       6.712       6.507       6.318       6.140       5.974       5.810       5.696       5.617       5.530    
        5.390       5.257       5.159       5.041       4.931       4.823       4.690       4.531       4.267       3.980    
        3.690       3.356       2.928       2.248       1.565       1.100      0.7769      0.5892      0.3255       0.000    
  12    10.00       9.972       9.916       9.815       9.674       9.527       9.426       9.346       9.241       9.125    
        8.978       8.798       8.608       8.431       8.270       8.095       7.912       7.698       7.473       7.181    
        6.868       6.645       6.443       6.250       6.055       5.889       5.772       5.685       5.584       5.475    
        5.351       5.250       5.162       5.068       4.970       4.861       4.717       4.522       4.277       4.017    
        3.707       3.342       2.755       1.992       1.411       1.084      0.8628      0.6254      0.3565       0.000    
  13    10.00       9.963       9.876       9.738       9.592       9.466       9.385       9.314       9.225       9.113    
        8.959       8.773       8.598       8.457       8.270       8.055       7.841       7.610       7.360       7.076    
        6.801       6.561       6.343       6.144       5.957       5.834       5.756       5.638       5.509       5.411    
        5.330       5.249       5.169       5.089       4.996       4.899       4.768       4.544       4.291       3.983    
        3.626       3.166       2.487       1.868       1.445       1.166      0.9073      0.6271      0.3097       0.000    
  14    10.00       9.933       9.808       9.657       9.522       9.423       9.369       9.305       9.219       9.097    
        8.928       8.769       8.625       8.478       8.269       8.016       7.786       7.524       7.246       6.951    
        6.684       6.444       6.228       6.031       5.883       5.799       5.705       5.564       5.453       5.377    
        5.318       5.242       5.174       5.098       5.013       4.935       4.781       4.552       4.283       3.900    
        3.479       2.937       2.414       1.961       1.538       1.211      0.9235      0.6277      0.2795       0.000    
  15    10.00       9.875       9.737       9.602       9.494       9.418       9.358       9.298       9.214       9.101    
        8.951       8.797       8.656       8.451       8.209       7.967       7.710       7.439       7.108       6.791    
        6.544       6.311       6.107       5.954       5.841       5.750       5.639       5.506       5.414       5.358    
        5.292       5.230       5.176       5.105       5.025       4.940       4.778       4.559       4.221       3.807    
        3.371       2.882       2.457       1.989       1.633       1.283      0.9349      0.6217      0.2549       0.000    
  16    10.00       9.854       9.705       9.582       9.489       9.420       9.359       9.303       9.222       9.105    
        8.966       8.819       8.647       8.390       8.127       7.926       7.675       7.312       6.933       6.637    
        6.379       6.183       6.016       5.885       5.761       5.677       5.556       5.446       5.374       5.311    
        5.262       5.220       5.162       5.098       5.026       4.929       4.781       4.516       4.147       3.769    
        3.394       2.922       2.442       2.028       1.692       1.325      0.9319      0.5570      0.2096       0.000    
  17    10.00       9.836       9.686       9.587       9.504       9.435       9.374       9.312       9.224       9.116    
        8.986       8.803       8.569       8.293       8.072       7.883       7.579       7.172       6.785       6.497    
        6.287       6.068       5.882       5.745       5.642       5.539       5.432       5.361       5.301       5.262    
        5.240       5.200       5.141       5.076       5.003       4.899       4.724       4.494       4.194       3.795    
        3.365       2.866       2.421       2.056       1.712       1.334      0.9516      0.5802      0.2452       0.000    
  18    10.00       9.826       9.686       9.601       9.526       9.459       9.399       9.324       9.238       9.122    
        8.967       8.752       8.493       8.259       8.042       7.766       7.413       7.042       6.700       6.416    
        6.158       5.877       5.715       5.600       5.510       5.394       5.323       5.262       5.223       5.218    
        5.203       5.168       5.109       5.037       4.961       4.850       4.680       4.491       4.230       3.861    
        3.301       2.769       2.406       2.058       1.765       1.368      0.9459      0.5687      0.2449       0.000    
  19    10.00       9.834       9.717       9.629       9.550       9.483       9.413       9.343       9.264       9.130    
        8.948       8.719       8.462       8.202       7.917       7.619       7.291       6.931       6.587       6.285    
        5.986       5.737       5.607       5.516       5.391       5.287       5.227       5.174       5.160       5.156    
        5.152       5.126       5.058       4.990       4.925       4.837       4.675       4.467       4.203       3.770    
        3.206       2.753       2.391       2.049       1.720       1.311      0.9082      0.5650      0.2662       0.000    
  20    10.00       9.843       9.744       9.667       9.590       9.511       9.428       9.353       9.273       9.137    
        8.940       8.702       8.405       8.067       7.740       7.495       7.165       6.777       6.473       6.172    
        5.904       5.697       5.539       5.403       5.244       5.171       5.130       5.101       5.102       5.099    
        5.098       5.064       5.005       4.960       4.902       4.810       4.626       4.414       4.112       3.627    
        3.140       2.779       2.360       1.970       1.612       1.210      0.9106      0.5609      0.2486       0.000    
  21    10.00       9.866       9.777       9.699       9.616       9.540       9.448       9.367       9.280       9.128    
        8.917       8.627       8.257       7.862       7.555       7.330       7.019       6.734       6.447       6.122    
        5.866       5.638       5.440       5.184       5.052       5.013       4.956       4.989       5.020       5.017    
        5.011       4.978       4.955       4.926       4.874       4.746       4.561       4.376       3.936       3.432    
        3.071       2.681       2.254       1.891       1.513       1.161      0.8244      0.4941      0.2482       0.000    
  22    10.00       9.895       9.801       9.717       9.636       9.564       9.461       9.356       9.255       9.099    
        8.841       8.477       8.059       7.687       7.422       7.187       6.947       6.741       6.427       6.107    
        5.838       5.514       5.160       4.890       4.790       4.693       4.706       4.806       4.846       4.867    
        4.883       4.877       4.887       4.885       4.835       4.698       4.507       4.167       3.669       3.347    
        2.958       2.539       2.157       1.808       1.486       1.069      0.7153      0.4737      0.2662       0.000    
  23    10.00       9.897       9.806       9.730       9.645       9.550       9.433       9.338       9.250       9.053    
        8.737       8.346       7.964       7.639       7.367       7.167       6.941       6.670       6.369       6.114    
        5.741       5.265       4.885       4.610       4.208       4.209       4.424       4.546       4.635       4.719    
        4.757       4.785       4.814       4.828       4.777       4.636       4.355       3.961       3.553       3.160    
        2.791       2.445       2.078       1.802       1.395      0.9712      0.6957      0.4555      0.2365       0.000    
  24    10.00       9.919       9.817       9.717       9.619       9.510       9.405       9.323       9.225       8.993    
        8.633       8.264       7.947       7.664       7.405       7.143       6.866       6.619       6.379       6.081    
        5.635       5.162       4.710       3.882       2.996       3.515       4.013       4.305       4.466       4.599    
        4.670       4.713       4.752       4.751       4.696       4.516       4.202       3.874       3.424       3.005    
        2.717       2.384       2.037       1.685       1.248      0.9011      0.6692      0.4266      0.1882       0.000    
  25    10.00       9.912       9.793       9.672       9.557       9.458       9.378       9.296       9.175       8.934    
        8.556       8.212       7.969       7.705       7.405       7.134       6.874       6.659       6.437       6.053    
        5.542       5.076       4.353       3.006      0.1858       2.910       3.696       4.155       4.396       4.534    
        4.616       4.669       4.701       4.685       4.616       4.419       4.085       3.704       3.338       2.981    
        2.651       2.291       1.895       1.525       1.110      0.8275      0.6665      0.4148      0.1537       0.000    
  26    10.00       9.890       9.738       9.601       9.508       9.428       9.349       9.249       9.105       8.807    
        8.455       8.214       7.981       7.718       7.438       7.177       6.933       6.721       6.443       6.035    
        5.586       5.072       4.440       3.713       3.044       3.401       3.870       4.193       4.389       4.516    
        4.593       4.645       4.659       4.630       4.535       4.304       3.937       3.630       3.334       2.950    
        2.606       2.198       1.745       1.348       1.009      0.8100      0.6305      0.3697      0.1574       0.000    
  27    10.00       9.865       9.703       9.575       9.497       9.393       9.288       9.161       8.968       8.684    
        8.434       8.221       7.984       7.727       7.452       7.246       7.079       6.794       6.444       6.028    
        5.646       5.275       4.769       4.293       3.917       3.978       4.158       4.316       4.440       4.529    
        4.607       4.646       4.642       4.588       4.463       4.201       3.911       3.641       3.298       2.937    
        2.581       2.090       1.572       1.199      0.9634      0.7969      0.5997      0.3909      0.1885       0.000    
  28    10.00       9.848       9.729       9.585       9.452       9.324       9.208       9.057       8.864       8.643    
        8.437       8.246       8.010       7.724       7.480       7.315       7.129       6.814       6.407       6.039    
        5.771       5.495       5.100       4.732       4.495       4.418       4.413       4.461       4.539       4.608    
        4.653       4.658       4.636       4.558       4.396       4.161       3.930       3.614       3.259       2.896    
        2.464       2.002       1.488       1.118      0.9528      0.7937      0.6183      0.4083      0.1893       0.000    
  29    10.00       9.853       9.705       9.552       9.393       9.269       9.137       8.970       8.806       8.631    
        8.447       8.256       8.026       7.784       7.576       7.382       7.134       6.782       6.411       6.126    
        5.899       5.659       5.337       5.011       4.818       4.712       4.645       4.641       4.674       4.692    
        4.689       4.673       4.629       4.526       4.344       4.146       3.934       3.641       3.247       2.789    
        2.394       1.903       1.391       1.101      0.9559      0.7994      0.6136      0.3989      0.1983       0.000    
  30    10.00       9.831       9.682       9.499       9.337       9.223       9.082       8.934       8.807       8.649    
        8.460       8.253       8.043       7.850       7.665       7.445       7.129       6.801       6.506       6.238    
        6.044       5.808       5.516       5.234       5.001       4.905       4.840       4.811       4.783       4.755    
        4.722       4.688       4.622       4.490       4.327       4.172       3.961       3.584       3.100       2.635    
        2.237       1.789       1.399       1.131      0.9777      0.8012      0.6028      0.4181      0.2051       0.000    
  31    10.00       9.809       9.636       9.461       9.314       9.196       9.062       8.931       8.805       8.650    
        8.461       8.252       8.071       7.910       7.735       7.487       7.174       6.892       6.662       6.427    
        6.222       5.957       5.670       5.432       5.195       5.038       4.970       4.904       4.855       4.801    
        4.756       4.698       4.608       4.481       4.326       4.155       3.822       3.405       3.005       2.553    
        2.178       1.732       1.353       1.160      0.9958      0.8297      0.6232      0.4186      0.1984       0.000    
  32    10.00       9.794       9.608       9.457       9.334       9.216       9.075       8.926       8.772       8.626    
        8.439       8.257       8.095       7.917       7.754       7.541       7.300       7.091       6.856       6.614    
        6.408       6.161       5.872       5.619       5.371       5.149       5.059       4.976       4.905       4.829    
        4.767       4.712       4.594       4.440       4.297       4.060       3.651       3.262       2.912       2.502    
        2.066       1.652       1.375       1.226       1.047      0.8369      0.6185      0.3977      0.1984       0.000    
  33    10.00       9.787       9.628       9.507       9.384       9.245       9.076       8.910       8.744       8.576    
        8.420       8.267       8.107       7.937       7.755       7.591       7.415       7.237       7.044       6.808    
        6.568       6.336       6.096       5.801       5.497       5.245       5.114       5.029       4.940       4.846    
        4.776       4.694       4.565       4.421       4.215       3.889       3.474       3.148       2.814       2.338    
        1.944       1.675       1.455       1.278       1.074      0.8534      0.5858      0.3499      0.1576       0.000    
  34    10.00       9.806       9.675       9.562       9.424       9.254       9.076       8.880       8.697       8.556    
        8.416       8.277       8.132       7.957       7.796       7.637       7.485       7.344       7.159       6.918    
        6.692       6.483       6.245       5.938       5.603       5.322       5.154       5.053       4.955       4.850    
        4.759       4.667       4.542       4.361       4.109       3.708       3.309       3.020       2.626       2.210    
        1.969       1.793       1.581       1.353       1.085      0.7739      0.4733      0.2802      0.1161       0.000    
  35    10.00       9.838       9.720       9.604       9.457       9.266       9.061       8.843       8.669       8.548    
        8.455       8.315       8.153       7.966       7.795       7.682       7.571       7.425       7.233       7.004    
        6.789       6.582       6.362       6.015       5.634       5.365       5.182       5.068       4.955       4.835    
        4.745       4.639       4.492       4.251       3.858       3.444       3.182       2.886       2.487       2.240    
        2.073       1.872       1.660       1.437       1.097      0.6579      0.3634      0.2388      0.1212       0.000    
  36    10.00       9.857       9.754       9.643       9.486       9.259       9.008       8.803       8.679       8.586    
        8.459       8.297       8.148       7.983       7.833       7.721       7.614       7.484       7.332       7.120    
        6.896       6.679       6.405       6.027       5.653       5.381       5.208       5.073       4.931       4.815    
        4.710       4.575       4.337       3.975       3.618       3.340       3.098       2.789       2.476       2.314    
        2.144       1.964       1.750       1.463       1.001      0.5538      0.3412      0.2183      0.1122       0.000    
  37    10.00       9.872       9.792       9.672       9.462       9.213       8.992       8.832       8.729       8.617    
        8.451       8.279       8.150       8.007       7.867       7.759       7.660       7.539       7.379       7.193    
        7.010       6.771       6.425       6.066       5.708       5.400       5.188       5.017       4.885       4.766    
        4.638       4.437       4.078       3.754       3.511       3.273       3.026       2.785       2.564       2.383    
        2.221       2.019       1.775       1.398      0.9164      0.5336      0.3194      0.2030      0.1018       0.000    
  38    10.00       9.891       9.794       9.663       9.445       9.187       9.000       8.882       8.775       8.641    
        8.465       8.285       8.158       8.026       7.886       7.778       7.691       7.585       7.426       7.266    
        7.096       6.816       6.419       6.028       5.667       5.363       5.130       4.940       4.811       4.699    
        4.530       4.195       3.884       3.687       3.449       3.216       3.040       2.841       2.639       2.466    
        2.275       1.999       1.691       1.282      0.8044      0.5109      0.3593      0.2239      0.1005       0.000    
  39    10.00       9.889       9.780       9.642       9.431       9.198       9.029       8.923       8.791       8.643    
        8.500       8.318       8.173       8.047       7.912       7.797       7.698       7.593       7.465       7.319    
        7.116       6.811       6.394       5.953       5.581       5.295       5.029       4.832       4.738       4.626    
        4.355       4.019       3.834       3.611       3.391       3.229       3.085       2.904       2.709       2.548    
        2.270       1.881       1.519       1.078      0.7170      0.5533      0.4118      0.2681      0.1379       0.000    
  40    10.00       9.880       9.784       9.643       9.449       9.253       9.088       8.948       8.791       8.655    
        8.547       8.369       8.186       8.058       7.933       7.801       7.692       7.609       7.495       7.314    
        7.076       6.720       6.294       5.879       5.502       5.203       4.896       4.744       4.660       4.508    
        4.264       4.024       3.775       3.548       3.396       3.258       3.122       2.953       2.774       2.563    
        2.188       1.764       1.372       1.016      0.7690      0.6004      0.4595      0.3243      0.1592       0.000    
  41    10.00       9.896       9.819       9.682       9.482       9.277       9.119       8.993       8.839       8.677    
        8.548       8.383       8.213       8.092       7.947       7.789       7.696       7.604       7.453       7.251    
        7.002       6.652       6.223       5.820       5.443       5.040       4.760       4.681       4.587       4.476    
        4.287       3.998       3.750       3.573       3.424       3.302       3.153       2.993       2.808       2.478    
        2.039       1.628       1.288       1.026      0.8119      0.6554      0.5049      0.3566      0.1878       0.000    
  42    10.00       9.922       9.836       9.705       9.531       9.335       9.156       9.026       8.886       8.706    
        8.540       8.382       8.236       8.121       7.966       7.800       7.686       7.559       7.392       7.160    
        6.871       6.486       6.110       5.708       5.216       4.863       4.724       4.661       4.582       4.464    
        4.243       3.991       3.763       3.585       3.466       3.337       3.205       3.032       2.737       2.299    
        1.917       1.611       1.316       1.020      0.8221      0.6891      0.5447      0.3712      0.2060       0.000    
  43    10.00       9.938       9.846       9.710       9.538       9.375       9.215       9.069       8.894       8.706    
        8.553       8.394       8.250       8.142       7.996       7.806       7.652       7.507       7.279       6.983    
        6.701       6.331       5.986       5.523       5.061       4.834       4.726       4.654       4.580       4.456    
        4.246       4.017       3.799       3.627       3.514       3.386       3.213       2.966       2.535       2.149    
        1.911       1.640       1.330       1.023      0.8136      0.6907      0.5794      0.4013      0.1881       0.000    
  44    10.00       9.931       9.852       9.709       9.553       9.435       9.273       9.072       8.873       8.717    
        8.564       8.403       8.276       8.161       7.989       7.784       7.607       7.433       7.163       6.869    
        6.534       6.167       5.800       5.339       4.996       4.830       4.737       4.675       4.594       4.438    
        4.225       4.043       3.851       3.693       3.577       3.399       3.170       2.815       2.380       2.125    
        1.908       1.625       1.316       1.037      0.8232      0.6924      0.5797      0.3931      0.1732       0.000    
  45    10.00       9.916       9.821       9.706       9.592       9.439       9.267       9.075       8.877       8.719    
        8.559       8.413       8.301       8.169       7.979       7.758       7.559       7.363       7.071       6.727    
        6.344       5.957       5.563       5.227       4.992       4.852       4.763       4.696       4.593       4.466    
        4.282       4.075       3.904       3.741       3.574       3.386       3.136       2.759       2.383       2.086    
        1.839       1.573       1.285       1.035      0.8488      0.7404      0.5721      0.3405      0.1552       0.000    
  46    10.00       9.899       9.800       9.708       9.577       9.402       9.235       9.076       8.881       8.712    
        8.570       8.434       8.321       8.160       7.958       7.760       7.549       7.292       6.978       6.605    
        6.156       5.774       5.462       5.208       5.030       4.906       4.795       4.705       4.623       4.482    
        4.287       4.107       3.939       3.750       3.584       3.407       3.125       2.691       2.297       2.033    
        1.802       1.547       1.277       1.058      0.9136      0.7741      0.5186      0.2549      0.1109       0.000    
  47    10.00       9.892       9.791       9.664       9.512       9.368       9.224       9.053       8.874       8.723    
        8.593       8.471       8.309       8.135       7.953       7.761       7.527       7.228       6.935       6.483    
        5.998       5.701       5.433       5.235       5.069       4.948       4.836       4.727       4.632       4.485    
        4.281       4.103       3.933       3.755       3.613       3.398       3.006       2.618       2.289       2.008    
        1.806       1.566       1.325       1.114      0.9355      0.7101      0.4266      0.2230      9.2857E-02   0.000    
  48    10.00       9.879       9.759       9.623       9.485       9.357       9.211       9.054       8.889       8.740    
        8.607       8.464       8.286       8.107       7.928       7.737       7.513       7.231       6.867       6.420    
        6.002       5.698       5.438       5.255       5.121       4.970       4.857       4.766       4.648       4.448    
        4.248       4.075       3.919       3.788       3.599       3.316       2.944       2.596       2.284       2.037    
        1.819       1.590       1.374       1.135      0.8674      0.5767      0.3645      0.2162      9.7676E-02   0.000    
  49    10.00       9.869       9.737       9.603       9.490       9.358       9.203       9.049       8.916       8.761    
        8.602       8.421       8.245       8.095       7.891       7.705       7.519       7.204       6.845       6.489    
        6.049       5.709       5.450       5.291       5.132       4.970       4.882       4.795       4.605       4.364    
        4.193       4.055       3.942       3.771       3.553       3.301       2.929       2.581       2.337       2.075    
        1.818       1.608       1.377       1.095      0.7678      0.5141      0.3646      0.2353      0.1207       0.000    
  50    10.00       9.873       9.742       9.606       9.483       9.352       9.214       9.063       8.922       8.784    
        8.588       8.399       8.239       8.037       7.830       7.688       7.511       7.266       6.911       6.558    
        6.109       5.682       5.458       5.295       5.130       4.998       4.892       4.774       4.549       4.321    
        4.180       4.066       3.935       3.757       3.555       3.314       2.939       2.582       2.345       2.108    
        1.864       1.600       1.340       1.039      0.7157      0.5261      0.3923      0.2659      0.1603       0.000    

 HEAD WILL BE SAVED ON UNIT   51 AT END OF TIME STEP  38, STRESS PERIOD    2

 DRAWDOWN WILL BE SAVED ON UNIT   52 AT END OF TIME STEP  38, STRESS PERIOD    2
1
  VOLUMETRIC BUDGET FOR ENTIRE MODEL AT END OF TIME STEP 38 IN STRESS PERIOD   2
  ------------------------------------------------------------------------------

     CUMULATIVE VOLUMES      L**3       RATES FOR THIS TIME STEP      L**3/T
     ------------------                 ------------------------

           IN:                                      IN:
           ---                                      ---
             STORAGE =       18932.1211               STORAGE =         492.0861
       CONSTANT HEAD =       14590.9014         CONSTANT HEAD =         379.9153
               WELLS =           0.0000                 WELLS =           0.0000

            TOTAL IN =       33523.0234              TOTAL IN =         872.0013

          OUT:                                     OUT:
          ----                                     ----
             STORAGE =       1.1143E-02               STORAGE =           0.0000
       CONSTANT HEAD =       14523.0117         CONSTANT HEAD =         372.0020
               WELLS =       19000.0000                 WELLS =         500.0000

           TOTAL OUT =       33523.0234             TOTAL OUT =         872.0020

            IN - OUT =           0.0000              IN - OUT =      -6.7139E-04

 PERCENT DISCREPANCY =           0.00     PERCENT DISCREPANCY =           0.00






          TIME SUMMARY AT END OF TIME STEP  38 IN STRESS PERIOD    2
                    SECONDS     MINUTES      HOURS       DAYS        YEARS
                    -----------------------------------------------------------
   TIME STEP LENGTH  86400.      1440.0      24.000      1.0000     2.73785E-03
 STRESS PERIOD TIME 3.28320E+06  54720.      912.00      38.000     0.10404    
         TOTAL TIME 3.36960E+06  56160.      936.00      39.000     0.10678    
1
 
 SOLVING FOR HEAD 

 OUTPUT CONTROL FOR STRESS PERIOD    2   TIME STEP  39
    SAVE HEAD FOR ALL LAYERS
    SAVE DRAWDOWN FOR ALL LAYERS
    SAVE BUDGET
    PRINT HEAD FOR ALL LAYERS
    PRINT BUDGET
 UBDSV1 SAVING "         STORAGE" ON UNIT  53 AT TIME STEP 39, STRESS PERIOD   2
 UBDSV2 SAVING "   CONSTANT HEAD" ON UNIT  53 AT TIME STEP 39, STRESS PERIOD   2
 UBDSV1 SAVING "FLOW RIGHT FACE " ON UNIT  53 AT TIME STEP 39, STRESS PERIOD   2
 UBDSV1 SAVING "FLOW FRONT FACE " ON UNIT  53 AT TIME STEP 39, STRESS PERIOD   2
1
              HEAD IN LAYER   1 AT END OF TIME STEP  39 IN STRESS PERIOD    2
  ---------------------------------------------------------------------------

            1           2           3           4           5           6           7           8           9          10
           11          12          13          14          15          16          17          18          19          20
           21          22          23          24          25          26          27          28          29          30
           31          32          33          34          35          36          37          38          39          40
           41          42          43          44          45          46          47          48          49          50
 ........................................................................................................................
   1    10.00       9.953       9.906       9.850       9.807       9.770       9.721       9.653       9.578       9.510    
        9.359       9.169       9.030       8.874       8.708       8.540       8.385       8.205       7.966       7.728    
        7.565       7.379       7.133       6.884       6.662       6.468       6.192       5.940       5.762       5.574    
        5.413       5.307       5.191       5.060       4.934       4.777       4.608       4.380       4.119       3.833    
        3.465       3.092       2.602       2.069       1.668       1.380       1.164      0.9179      0.5388       0.000    
   2    10.00       9.948       9.898       9.851       9.814       9.778       9.723       9.654       9.586       9.493    
        9.345       9.176       9.019       8.877       8.724       8.551       8.366       8.182       7.959       7.718    
        7.541       7.388       7.127       6.858       6.660       6.441       6.174       5.934       5.729       5.553    
        5.415       5.318       5.220       5.079       4.932       4.776       4.582       4.369       4.116       3.791    
        3.447       3.128       2.615       2.085       1.729       1.472       1.223      0.9480      0.5722       0.000    
   3    10.00       9.939       9.897       9.865       9.830       9.793       9.734       9.651       9.568       9.468    
        9.334       9.184       9.032       8.889       8.707       8.491       8.311       8.151       7.946       7.735    
        7.553       7.336       7.079       6.841       6.627       6.381       6.127       5.890       5.679       5.546    
        5.433       5.339       5.241       5.086       4.931       4.765       4.573       4.336       4.053       3.804    
        3.498       3.065       2.563       2.182       1.879       1.580       1.274      0.9608      0.5423       0.000    
   4    10.00       9.940       9.902       9.873       9.849       9.809       9.742       9.647       9.548       9.449    
        9.321       9.186       9.035       8.855       8.632       8.431       8.302       8.123       7.925       7.760    
        7.512       7.237       7.011       6.800       6.592       6.300       6.018       5.829       5.684       5.569    
        5.467       5.368       5.261       5.082       4.890       4.741       4.539       4.292       4.050       3.831    
        3.484       3.006       2.627       2.306       1.980       1.640       1.271      0.9046      0.4635       0.000    
   5    10.00       9.945       9.910       9.881       9.859       9.819       9.747       9.639       9.530       9.430    
        9.321       9.183       8.989       8.780       8.591       8.432       8.272       8.105       7.919       7.688    
        7.401       7.173       6.985       6.772       6.506       6.204       5.971       5.835       5.716       5.600    
        5.482       5.362       5.240       5.069       4.873       4.692       4.511       4.316       4.095       3.805    
        3.412       3.047       2.722       2.397       2.041       1.645       1.182      0.7619      0.3945       0.000    
   6    10.00       9.954       9.920       9.892       9.862       9.817       9.741       9.624       9.529       9.422    
        9.301       9.130       8.919       8.744       8.570       8.390       8.227       8.078       7.870       7.609    
        7.354       7.137       6.945       6.682       6.394       6.164       5.975       5.847       5.716       5.597    
        5.492       5.360       5.208       5.031       4.842       4.686       4.527       4.350       4.117       3.804    
        3.459       3.105       2.773       2.444       2.058       1.579       1.081      0.7167      0.3689       0.000    
   7    10.00       9.960       9.931       9.901       9.868       9.815       9.713       9.601       9.502       9.371    
        9.247       9.065       8.874       8.695       8.517       8.335       8.176       8.039       7.802       7.523    
        7.294       7.074       6.861       6.605       6.360       6.149       5.983       5.833       5.693       5.598    
        5.491       5.346       5.185       5.004       4.840       4.702       4.555       4.372       4.132       3.846    
        3.503       3.138       2.793       2.430       2.049       1.546       1.034      0.6827      0.3231       0.000    
   8    10.00       9.967       9.941       9.908       9.871       9.785       9.661       9.555       9.432       9.307    
        9.170       8.985       8.823       8.642       8.443       8.266       8.128       7.966       7.744       7.473    
        7.208       7.006       6.828       6.567       6.313       6.125       5.937       5.776       5.679       5.587    
        5.461       5.316       5.179       5.019       4.846       4.701       4.589       4.448       4.212       3.882    
        3.506       3.181       2.857       2.435       2.009       1.447      0.9578      0.6688      0.3095       0.000    
   9    10.00       9.974       9.945       9.908       9.845       9.733       9.602       9.478       9.370       9.241    
        9.080       8.916       8.755       8.582       8.378       8.211       8.083       7.893       7.674       7.401    
        7.169       6.969       6.720       6.455       6.240       6.073       5.884       5.746       5.651       5.547    
        5.432       5.301       5.171       5.031       4.882       4.742       4.626       4.500       4.256       3.898    
        3.551       3.260       2.919       2.511       1.880       1.245      0.9127      0.5657      0.2158       0.000    
  10    10.00       9.974       9.943       9.893       9.796       9.663       9.518       9.422       9.320       9.168    
        9.028       8.866       8.706       8.519       8.331       8.182       8.010       7.813       7.583       7.362    
        7.135       6.832       6.576       6.366       6.183       6.032       5.858       5.716       5.622       5.534    
        5.411       5.270       5.153       5.024       4.892       4.795       4.678       4.532       4.252       3.897    
        3.624       3.368       2.975       2.359       1.630       1.170      0.8285      0.5059      0.2523       0.000    
  11    10.00       9.974       9.934       9.855       9.747       9.598       9.470       9.390       9.268       9.139    
        9.005       8.835       8.644       8.445       8.287       8.127       7.967       7.756       7.533       7.315    
        6.997       6.704       6.498       6.308       6.131       5.964       5.800       5.687       5.607       5.521    
        5.381       5.249       5.150       5.034       4.924       4.816       4.684       4.525       4.262       3.976    
        3.687       3.353       2.926       2.247       1.564       1.100      0.7767      0.5891      0.3254       0.000    
  12    10.00       9.972       9.916       9.815       9.674       9.526       9.425       9.345       9.239       9.123    
        8.976       8.796       8.605       8.428       8.266       8.090       7.906       7.692       7.466       7.173    
        6.859       6.636       6.433       6.240       6.045       5.878       5.762       5.675       5.574       5.464    
        5.341       5.240       5.153       5.060       4.962       4.854       4.711       4.516       4.272       4.013    
        3.703       3.339       2.754       1.991       1.410       1.084      0.8626      0.6253      0.3564       0.000    
  13    10.00       9.963       9.876       9.738       9.591       9.465       9.384       9.313       9.223       9.111    
        8.957       8.771       8.595       8.453       8.266       8.050       7.835       7.603       7.353       7.067    
        6.792       6.551       6.332       6.132       5.945       5.822       5.744       5.627       5.497       5.400    
        5.319       5.238       5.159       5.080       4.987       4.891       4.760       4.538       4.285       3.979    
        3.623       3.164       2.486       1.867       1.444       1.166      0.9070      0.6269      0.3097       0.000    
  14    10.00       9.933       9.808       9.656       9.521       9.422       9.367       9.303       9.217       9.095    
        8.925       8.766       8.621       8.474       8.265       8.010       7.779       7.517       7.237       6.941    
        6.673       6.433       6.216       6.019       5.871       5.786       5.693       5.552       5.441       5.365    
        5.306       5.231       5.163       5.088       5.004       4.926       4.773       4.545       4.277       3.896    
        3.476       2.935       2.412       1.960       1.538       1.211      0.9232      0.6276      0.2795       0.000    
  15    10.00       9.875       9.737       9.601       9.493       9.417       9.357       9.296       9.212       9.099    
        8.949       8.794       8.652       8.446       8.204       7.961       7.703       7.430       7.098       6.780    
        6.532       6.299       6.094       5.941       5.828       5.737       5.626       5.493       5.401       5.346    
        5.280       5.218       5.165       5.094       5.015       4.930       4.770       4.552       4.215       3.803    
        3.368       2.880       2.455       1.988       1.632       1.282      0.9346      0.6215      0.2549       0.000    
  16    10.00       9.854       9.705       9.581       9.488       9.419       9.357       9.302       9.220       9.103    
        8.963       8.815       8.643       8.384       8.120       7.919       7.666       7.302       6.921       6.624    
        6.365       6.169       6.002       5.870       5.747       5.663       5.542       5.432       5.361       5.298    
        5.249       5.207       5.150       5.087       5.015       4.919       4.772       4.509       4.141       3.765    
        3.391       2.919       2.440       2.027       1.692       1.324      0.9317      0.5569      0.2096       0.000    
  17    10.00       9.835       9.685       9.586       9.503       9.433       9.373       9.310       9.222       9.113    
        8.983       8.799       8.564       8.287       8.065       7.874       7.569       7.160       6.772       6.483    
        6.273       6.053       5.867       5.730       5.627       5.524       5.417       5.346       5.286       5.248    
        5.226       5.187       5.128       5.064       4.992       4.889       4.715       4.486       4.187       3.790    
        3.361       2.863       2.420       2.055       1.711       1.334      0.9514      0.5801      0.2452       0.000    
  18    10.00       9.826       9.685       9.600       9.525       9.458       9.398       9.322       9.236       9.119    
        8.964       8.748       8.487       8.252       8.034       7.757       7.402       7.029       6.686       6.401    
        6.143       5.861       5.698       5.584       5.493       5.378       5.307       5.247       5.207       5.203    
        5.189       5.155       5.096       5.024       4.949       4.839       4.670       4.483       4.223       3.856    
        3.298       2.767       2.404       2.057       1.764       1.368      0.9457      0.5686      0.2449       0.000    
  19    10.00       9.834       9.716       9.629       9.549       9.482       9.411       9.341       9.261       9.127    
        8.944       8.714       8.456       8.195       7.908       7.608       7.278       6.918       6.572       6.269    
        5.969       5.720       5.589       5.499       5.374       5.270       5.211       5.157       5.144       5.141    
        5.137       5.112       5.044       4.976       4.912       4.826       4.665       4.458       4.195       3.764    
        3.203       2.751       2.390       2.048       1.720       1.311      0.9080      0.5649      0.2661       0.000    
  20    10.00       9.843       9.743       9.666       9.589       9.509       9.426       9.351       9.271       9.135    
        8.937       8.697       8.398       8.059       7.729       7.484       7.151       6.762       6.457       6.156    
        5.887       5.680       5.521       5.385       5.226       5.153       5.113       5.084       5.085       5.083    
        5.082       5.049       4.990       4.946       4.889       4.798       4.615       4.405       4.105       3.622    
        3.137       2.777       2.358       1.969       1.612       1.210      0.9105      0.5608      0.2486       0.000    
  21    10.00       9.866       9.776       9.698       9.615       9.538       9.447       9.365       9.278       9.125    
        8.913       8.622       8.249       7.852       7.543       7.317       7.004       6.719       6.431       6.105    
        5.848       5.620       5.422       5.166       5.033       4.995       4.938       4.972       5.002       4.999    
        4.994       4.961       4.939       4.911       4.860       4.734       4.551       4.367       3.930       3.428    
        3.068       2.679       2.253       1.891       1.512       1.161      0.8242      0.4940      0.2481       0.000    
  22    10.00       9.895       9.801       9.716       9.635       9.563       9.459       9.354       9.253       9.096    
        8.836       8.471       8.050       7.676       7.409       7.173       6.933       6.725       6.410       6.090    
        5.821       5.495       5.141       4.871       4.771       4.674       4.687       4.787       4.827       4.848    
        4.865       4.859       4.870       4.870       4.820       4.685       4.496       4.160       3.664       3.343    
        2.956       2.538       2.156       1.808       1.485       1.068      0.7152      0.4736      0.2662       0.000    
  23    10.00       9.896       9.806       9.729       9.644       9.549       9.431       9.336       9.248       9.050    
        8.732       8.339       7.954       7.627       7.354       7.153       6.926       6.655       6.352       6.097    
        5.723       5.246       4.865       4.590       4.188       4.189       4.404       4.527       4.616       4.700    
        4.738       4.766       4.795       4.811       4.762       4.623       4.345       3.954       3.549       3.157    
        2.789       2.444       2.077       1.802       1.394      0.9711      0.6956      0.4554      0.2364       0.000    
  24    10.00       9.919       9.816       9.716       9.618       9.508       9.403       9.321       9.223       8.989    
        8.627       8.256       7.937       7.652       7.392       7.129       6.851       6.603       6.363       6.063    
        5.616       5.142       4.690       3.862       2.976       3.494       3.993       4.284       4.446       4.579    
        4.650       4.694       4.734       4.733       4.680       4.503       4.192       3.867       3.420       3.003    
        2.715       2.383       2.036       1.684       1.247      0.9009      0.6691      0.4266      0.1882       0.000    
  25    10.00       9.912       9.793       9.671       9.555       9.456       9.376       9.294       9.172       8.930    
        8.550       8.203       7.959       7.694       7.392       7.120       6.859       6.643       6.420       6.036    
        5.523       5.057       4.333       2.985      0.1633       2.888       3.675       4.134       4.375       4.514    
        4.596       4.649       4.682       4.667       4.600       4.406       4.075       3.698       3.334       2.978    
        2.649       2.289       1.895       1.524       1.110      0.8273      0.6664      0.4147      0.1537       0.000    
  26    10.00       9.889       9.737       9.599       9.507       9.427       9.347       9.246       9.102       8.802    
        8.448       8.206       7.971       7.707       7.425       7.163       6.918       6.705       6.426       6.017    
        5.567       5.052       4.420       3.692       3.023       3.380       3.849       4.172       4.368       4.495    
        4.572       4.626       4.640       4.612       4.519       4.291       3.927       3.623       3.329       2.946    
        2.604       2.197       1.745       1.347       1.009      0.8098      0.6304      0.3697      0.1573       0.000    
  27    10.00       9.865       9.703       9.574       9.496       9.391       9.286       9.158       8.964       8.679    
        8.428       8.213       7.975       7.716       7.440       7.232       7.065       6.779       6.427       6.010    
        5.627       5.256       4.749       4.273       3.896       3.957       4.137       4.295       4.420       4.509    
        4.587       4.627       4.623       4.571       4.447       4.189       3.901       3.634       3.293       2.933    
        2.579       2.088       1.571       1.199      0.9631      0.7967      0.5996      0.3909      0.1884       0.000    
  28    10.00       9.847       9.728       9.584       9.451       9.322       9.205       9.054       8.860       8.638    
        8.431       8.238       8.002       7.713       7.468       7.302       7.116       6.799       6.391       6.022    
        5.753       5.477       5.081       4.712       4.475       4.397       4.393       4.441       4.519       4.589    
        4.634       4.639       4.617       4.541       4.381       4.149       3.920       3.607       3.254       2.893    
        2.461       2.000       1.487       1.117      0.9526      0.7935      0.6181      0.4082      0.1892       0.000    
  29    10.00       9.852       9.704       9.551       9.391       9.267       9.135       8.967       8.802       8.626    
        8.440       8.249       8.018       7.774       7.565       7.370       7.121       6.767       6.395       6.110    
        5.882       5.641       5.318       4.992       4.798       4.692       4.625       4.621       4.655       4.673    
        4.670       4.655       4.612       4.510       4.331       4.134       3.924       3.633       3.242       2.786    
        2.392       1.902       1.391       1.101      0.9556      0.7992      0.6134      0.3988      0.1983       0.000    
  30    10.00       9.831       9.681       9.497       9.335       9.220       9.079       8.931       8.803       8.644    
        8.454       8.246       8.035       7.841       7.655       7.434       7.116       6.787       6.491       6.222    
        6.027       5.791       5.498       5.215       4.982       4.886       4.821       4.792       4.764       4.737    
        4.705       4.670       4.605       4.475       4.314       4.160       3.951       3.576       3.096       2.632    
        2.235       1.788       1.399       1.131      0.9774      0.8010      0.6026      0.4180      0.2050       0.000    
  31    10.00       9.808       9.635       9.459       9.312       9.193       9.059       8.927       8.801       8.645    
        8.456       8.246       8.063       7.902       7.726       7.476       7.162       6.879       6.648       6.411    
        6.206       5.940       5.652       5.414       5.176       5.019       4.951       4.886       4.837       4.784    
        4.739       4.681       4.592       4.467       4.313       4.143       3.814       3.398       3.001       2.551    
        2.176       1.731       1.353       1.159      0.9955      0.8294      0.6230      0.4185      0.1983       0.000    
  32    10.00       9.793       9.607       9.456       9.332       9.213       9.073       8.923       8.768       8.621    
        8.433       8.251       8.088       7.909       7.745       7.532       7.289       7.079       6.843       6.599    
        6.393       6.145       5.855       5.601       5.353       5.131       5.041       4.958       4.888       4.812    
        4.751       4.696       4.579       4.426       4.285       4.049       3.644       3.256       2.909       2.500    
        2.064       1.651       1.374       1.225       1.046      0.8366      0.6183      0.3976      0.1983       0.000    
  33    10.00       9.787       9.627       9.506       9.382       9.243       9.074       8.906       8.740       8.571    
        8.415       8.261       8.100       7.930       7.747       7.582       7.405       7.226       7.032       6.795    
        6.554       6.322       6.080       5.785       5.480       5.229       5.097       5.012       4.924       4.831    
        4.761       4.679       4.551       4.408       4.203       3.880       3.468       3.143       2.811       2.337    
        1.943       1.674       1.455       1.278       1.074      0.8531      0.5857      0.3498      0.1576       0.000    
  34    10.00       9.805       9.674       9.561       9.423       9.252       9.073       8.877       8.693       8.551    
        8.411       8.271       8.126       7.950       7.788       7.629       7.476       7.334       7.149       6.906    
        6.679       6.469       6.231       5.923       5.587       5.306       5.139       5.037       4.940       4.835    
        4.745       4.653       4.530       4.349       4.099       3.701       3.304       3.016       2.624       2.209    
        1.968       1.792       1.580       1.352       1.084      0.7736      0.4732      0.2801      0.1161       0.000    
  35    10.00       9.837       9.719       9.603       9.456       9.264       9.059       8.840       8.665       8.544    
        8.450       8.309       8.147       7.959       7.787       7.674       7.562       7.415       7.223       6.993    
        6.777       6.570       6.349       6.000       5.619       5.350       5.167       5.053       4.941       4.821    
        4.732       4.626       4.480       4.240       3.850       3.439       3.178       2.883       2.485       2.238    
        2.071       1.871       1.659       1.437       1.097      0.6577      0.3633      0.2388      0.1212       0.000    
  36    10.00       9.856       9.754       9.643       9.485       9.257       9.005       8.800       8.675       8.582    
        8.454       8.292       8.143       7.976       7.826       7.713       7.606       7.475       7.323       7.110    
        6.886       6.668       6.393       6.015       5.640       5.368       5.195       5.060       4.918       4.802    
        4.697       4.564       4.327       3.967       3.613       3.336       3.095       2.786       2.474       2.312    
        2.143       1.963       1.749       1.462       1.000      0.5536      0.3411      0.2183      0.1121       0.000    
  37    10.00       9.871       9.792       9.671       9.461       9.211       8.989       8.829       8.726       8.613    
        8.447       8.274       8.145       8.001       7.860       7.752       7.653       7.531       7.371       7.184    
        7.001       6.761       6.415       6.055       5.696       5.388       5.177       5.006       4.874       4.755    
        4.627       4.427       4.071       3.749       3.506       3.270       3.023       2.783       2.562       2.382    
        2.219       2.018       1.774       1.397      0.9161      0.5335      0.3194      0.2029      0.1018       0.000    
  38    10.00       9.890       9.794       9.662       9.444       9.186       8.998       8.879       8.772       8.638    
        8.461       8.280       8.153       8.020       7.880       7.772       7.685       7.578       7.419       7.258    
        7.088       6.807       6.410       6.019       5.658       5.353       5.120       4.931       4.803       4.690    
        4.521       4.188       3.879       3.683       3.446       3.214       3.038       2.839       2.637       2.465    
        2.273       1.998       1.690       1.282      0.8042      0.5108      0.3592      0.2238      0.1004       0.000    
  39    10.00       9.889       9.779       9.641       9.430       9.196       9.027       8.921       8.788       8.640    
        8.496       8.314       8.169       8.042       7.907       7.791       7.692       7.587       7.458       7.312    
        7.109       6.803       6.386       5.946       5.573       5.288       5.022       4.825       4.731       4.619    
        4.349       4.014       3.830       3.607       3.389       3.227       3.083       2.902       2.708       2.546    
        2.269       1.881       1.519       1.078      0.7169      0.5531      0.4117      0.2681      0.1379       0.000    
  40    10.00       9.880       9.783       9.642       9.448       9.251       9.086       8.945       8.788       8.652    
        8.544       8.365       8.182       8.053       7.928       7.796       7.686       7.603       7.490       7.308    
        7.070       6.715       6.288       5.873       5.497       5.197       4.891       4.739       4.655       4.503    
        4.260       4.020       3.771       3.545       3.394       3.256       3.120       2.951       2.773       2.561    
        2.187       1.763       1.372       1.016      0.7689      0.6003      0.4594      0.3242      0.1592       0.000    
  41    10.00       9.896       9.819       9.681       9.481       9.276       9.117       8.991       8.836       8.674    
        8.545       8.380       8.209       8.088       7.942       7.784       7.691       7.599       7.448       7.246    
        6.997       6.647       6.219       5.816       5.439       5.036       4.756       4.677       4.583       4.472    
        4.284       3.995       3.748       3.571       3.422       3.300       3.151       2.991       2.806       2.476    
        2.039       1.627       1.287       1.025      0.8118      0.6553      0.5048      0.3566      0.1877       0.000    
  42    10.00       9.922       9.836       9.704       9.531       9.334       9.155       9.024       8.884       8.704    
        8.537       8.380       8.233       8.117       7.962       7.796       7.681       7.555       7.388       7.156    
        6.868       6.483       6.108       5.706       5.213       4.860       4.721       4.658       4.579       4.461    
        4.240       3.988       3.760       3.583       3.464       3.335       3.203       3.030       2.736       2.298    
        1.917       1.611       1.316       1.020      0.8219      0.6890      0.5446      0.3712      0.2059       0.000    
  43    10.00       9.938       9.846       9.709       9.538       9.374       9.214       9.068       8.892       8.704    
        8.552       8.392       8.247       8.139       7.993       7.803       7.649       7.504       7.276       6.980    
        6.699       6.329       5.984       5.521       5.059       4.832       4.724       4.651       4.577       4.453    
        4.244       4.015       3.797       3.626       3.512       3.384       3.212       2.964       2.534       2.148    
        1.910       1.640       1.330       1.023      0.8135      0.6906      0.5793      0.4013      0.1880       0.000    
  44    10.00       9.931       9.852       9.709       9.553       9.434       9.272       9.071       8.872       8.716    
        8.562       8.401       8.274       8.159       7.987       7.782       7.604       7.431       7.161       6.867    
        6.533       6.165       5.799       5.338       4.995       4.828       4.735       4.673       4.592       4.435    
        4.223       4.041       3.850       3.691       3.575       3.398       3.169       2.814       2.379       2.125    
        1.908       1.625       1.316       1.037      0.8231      0.6924      0.5797      0.3930      0.1732       0.000    
  45    10.00       9.916       9.821       9.706       9.592       9.439       9.267       9.074       8.876       8.718    
        8.558       8.412       8.300       8.167       7.977       7.757       7.558       7.361       7.070       6.726    
        6.343       5.956       5.562       5.226       4.991       4.850       4.761       4.695       4.591       4.464    
        4.281       4.074       3.903       3.740       3.572       3.385       3.135       2.758       2.382       2.085    
        1.839       1.573       1.285       1.035      0.8487      0.7403      0.5720      0.3405      0.1552       0.000    
  46    10.00       9.899       9.800       9.708       9.577       9.401       9.234       9.076       8.881       8.711    
        8.569       8.434       8.320       8.159       7.957       7.759       7.548       7.291       6.977       6.604    
        6.156       5.773       5.461       5.207       5.028       4.904       4.794       4.704       4.622       4.480    
        4.285       4.106       3.938       3.749       3.583       3.406       3.124       2.690       2.297       2.033    
        1.801       1.547       1.277       1.058      0.9136      0.7741      0.5186      0.2549      0.1108       0.000    
  47    10.00       9.892       9.791       9.664       9.512       9.367       9.224       9.052       8.873       8.722    
        8.592       8.471       8.308       8.134       7.952       7.760       7.526       7.227       6.934       6.482    
        5.997       5.700       5.433       5.234       5.068       4.946       4.835       4.726       4.631       4.484    
        4.279       4.102       3.932       3.754       3.612       3.397       3.006       2.617       2.289       2.008    
        1.806       1.566       1.325       1.114      0.9355      0.7100      0.4266      0.2230      9.2852E-02   0.000    
  48    10.00       9.879       9.759       9.623       9.484       9.356       9.211       9.053       8.888       8.740    
        8.607       8.463       8.285       8.106       7.927       7.736       7.513       7.231       6.867       6.419    
        6.002       5.697       5.437       5.254       5.120       4.969       4.856       4.765       4.647       4.447    
        4.247       4.074       3.918       3.787       3.599       3.316       2.944       2.595       2.284       2.037    
        1.819       1.590       1.374       1.135      0.8673      0.5767      0.3645      0.2162      9.7673E-02   0.000    
  49    10.00       9.869       9.737       9.603       9.490       9.358       9.203       9.049       8.915       8.760    
        8.601       8.420       8.245       8.095       7.891       7.705       7.519       7.203       6.844       6.488    
        6.048       5.709       5.450       5.290       5.131       4.969       4.881       4.793       4.604       4.363    
        4.192       4.054       3.942       3.771       3.552       3.300       2.929       2.581       2.337       2.075    
        1.818       1.608       1.377       1.095      0.7678      0.5141      0.3646      0.2353      0.1207       0.000    
  50    10.00       9.873       9.742       9.606       9.483       9.352       9.214       9.062       8.922       8.783    
        8.588       8.399       8.238       8.037       7.830       7.687       7.510       7.266       6.910       6.558    
        6.109       5.682       5.457       5.295       5.129       4.997       4.891       4.773       4.548       4.321    
        4.179       4.066       3.934       3.757       3.555       3.314       2.938       2.582       2.345       2.108    
        1.864       1.599       1.340       1.039      0.7157      0.5261      0.3922      0.2659      0.1603       0.000    

 HEAD WILL BE SAVED ON UNIT   51 AT END OF TIME STEP  39, STRESS PERIOD    2

 DRAWDOWN WILL BE SAVED ON UNIT   52 AT END OF TIME STEP  39, STRESS PERIOD    2
1
  VOLUMETRIC BUDGET FOR ENTIRE MODEL AT END OF TIME STEP 39 IN STRESS PERIOD   2
  ------------------------------------------------------------------------------

     CUMULATIVE VOLUMES      L**3       RATES FOR THIS TIME STEP      L**3/T
     ------------------                 ------------------------

           IN:                                      IN:
           ---                                      ---
             STORAGE =       19423.5078               STORAGE =         491.3859
       CONSTANT HEAD =       14971.4531         CONSTANT HEAD =         380.5518
               WELLS =           0.0000                 WELLS =           0.0000

            TOTAL IN =       34394.9609              TOTAL IN =         871.9377

          OUT:                                     OUT:
          ----                                     ----
             STORAGE =       1.1143E-02               STORAGE =           0.0000
       CONSTANT HEAD =       14894.9492         CONSTANT HEAD =         371.9375
               WELLS =       19500.0000                 WELLS =         500.0000

           TOTAL OUT =       34394.9609             TOTAL OUT =         871.9375

            IN - OUT =           0.0000              IN - OUT =       1.8311E-04

 PERCENT DISCREPANCY =           0.00     PERCENT DISCREPANCY =           0.00






          TIME SUMMARY AT END OF TIME STEP  39 IN STRESS PERIOD    2
                    SECONDS     MINUTES      HOURS       DAYS        YEARS
                    -----------------------------------------------------------
   TIME STEP LENGTH  86400.      1440.0      24.000      1.0000     2.73785E-03
 STRESS PERIOD TIME 3.36960E+06  56160.      936.00      39.000     0.10678    
         TOTAL TIME 3.45600E+06  57600.      960.00      40.000     0.10951    
1
 
 SOLVING FOR HEAD 

 OUTPUT CONTROL FOR STRESS PERIOD    2   TIME STEP  40
    SAVE HEAD FOR ALL LAYERS
    SAVE DRAWDOWN FOR ALL LAYERS
    SAVE BUDGET
    PRINT HEAD FOR ALL LAYERS
    PRINT BUDGET
 UBDSV1 SAVING "         STORAGE" ON UNIT  53 AT TIME STEP 40, STRESS PERIOD   2
 UBDSV2 SAVING "   CONSTANT HEAD" ON UNIT  53 AT TIME STEP 40, STRESS PERIOD   2
 UBDSV1 SAVING "FLOW RIGHT FACE " ON UNIT  53 AT TIME STEP 40, STRESS PERIOD   2
 UBDSV1 SAVING "FLOW FRONT FACE " ON UNIT  53 AT TIME STEP 40, STRESS PERIOD   2
1
              HEAD IN LAYER   1 AT END OF TIME STEP  40 IN STRESS PERIOD    2
  ---------------------------------------------------------------------------

            1           2           3           4           5           6           7           8           9          10
           11          12          13          14          15          16          17          18          19          20
           21          22          23          24          25          26          27          28          29          30
           31          32          33          34          35          36          37          38          39          40
           41          42          43          44          45          46          47          48          49          50
 ........................................................................................................................
   1    10.00       9.953       9.906       9.850       9.807       9.770       9.721       9.652       9.578       9.509    
        9.358       9.169       9.029       8.873       8.707       8.539       8.383       8.204       7.965       7.726    
        7.563       7.377       7.131       6.882       6.660       6.466       6.189       5.937       5.759       5.571    
        5.410       5.304       5.188       5.057       4.931       4.774       4.606       4.378       4.117       3.831    
        3.464       3.091       2.601       2.068       1.668       1.379       1.164      0.9178      0.5387       0.000    
   2    10.00       9.948       9.898       9.851       9.814       9.778       9.723       9.654       9.585       9.493    
        9.345       9.176       9.018       8.876       8.723       8.550       8.365       8.181       7.957       7.717    
        7.539       7.386       7.125       6.855       6.658       6.438       6.172       5.931       5.726       5.549    
        5.412       5.315       5.217       5.076       4.929       4.773       4.580       4.367       4.114       3.789    
        3.445       3.128       2.614       2.084       1.729       1.471       1.223      0.9479      0.5721       0.000    
   3    10.00       9.939       9.897       9.865       9.829       9.792       9.734       9.651       9.568       9.467    
        9.333       9.183       9.032       8.889       8.706       8.490       8.309       8.150       7.945       7.733    
        7.551       7.334       7.076       6.839       6.624       6.379       6.124       5.886       5.675       5.543    
        5.430       5.336       5.238       5.083       4.928       4.763       4.571       4.334       4.051       3.802    
        3.497       3.064       2.563       2.182       1.879       1.580       1.274      0.9607      0.5422       0.000    
   4    10.00       9.940       9.902       9.873       9.849       9.809       9.742       9.646       9.548       9.448    
        9.321       9.186       9.034       8.855       8.631       8.430       8.301       8.122       7.923       7.758    
        7.510       7.235       7.008       6.798       6.589       6.297       6.015       5.825       5.680       5.565    
        5.463       5.364       5.258       5.079       4.887       4.738       4.536       4.290       4.048       3.829    
        3.483       3.005       2.626       2.305       1.979       1.639       1.271      0.9045      0.4634       0.000    
   5    10.00       9.945       9.910       9.881       9.859       9.819       9.747       9.639       9.529       9.429    
        9.321       9.182       8.988       8.779       8.589       8.430       8.270       8.103       7.917       7.685    
        7.398       7.170       6.982       6.768       6.503       6.200       5.967       5.831       5.712       5.596    
        5.478       5.358       5.237       5.065       4.870       4.689       4.508       4.313       4.093       3.803    
        3.411       3.046       2.721       2.396       2.041       1.645       1.182      0.7618      0.3944       0.000    
   6    10.00       9.954       9.920       9.892       9.862       9.817       9.741       9.624       9.529       9.422    
        9.301       9.129       8.917       8.743       8.569       8.388       8.225       8.076       7.868       7.606    
        7.351       7.134       6.941       6.678       6.390       6.160       5.971       5.843       5.712       5.592    
        5.488       5.356       5.204       5.027       4.838       4.682       4.524       4.347       4.114       3.802    
        3.457       3.104       2.771       2.444       2.058       1.578       1.080      0.7165      0.3688       0.000    
   7    10.00       9.960       9.931       9.901       9.868       9.815       9.713       9.601       9.502       9.370    
        9.246       9.064       8.872       8.693       8.515       8.333       8.173       8.036       7.799       7.520    
        7.290       7.070       6.856       6.601       6.355       6.144       5.978       5.827       5.687       5.592    
        5.486       5.341       5.180       5.000       4.836       4.698       4.551       4.368       4.129       3.844    
        3.501       3.137       2.792       2.429       2.048       1.545       1.034      0.6826      0.3230       0.000    
   8    10.00       9.967       9.941       9.908       9.871       9.785       9.661       9.555       9.431       9.306    
        9.169       8.984       8.821       8.640       8.441       8.263       8.125       7.963       7.740       7.469    
        7.203       7.001       6.823       6.561       6.307       6.119       5.931       5.769       5.672       5.581    
        5.454       5.310       5.173       5.013       4.840       4.696       4.584       4.444       4.209       3.880    
        3.503       3.179       2.856       2.434       2.008       1.446      0.9576      0.6687      0.3094       0.000    
   9    10.00       9.974       9.945       9.908       9.845       9.732       9.601       9.477       9.369       9.240    
        9.079       8.915       8.753       8.579       8.375       8.208       8.079       7.889       7.670       7.396    
        7.164       6.963       6.714       6.448       6.233       6.065       5.876       5.738       5.643       5.540    
        5.424       5.294       5.164       5.024       4.876       4.736       4.621       4.495       4.252       3.895    
        3.548       3.258       2.917       2.509       1.880       1.245      0.9124      0.5656      0.2158       0.000    
  10    10.00       9.974       9.943       9.892       9.796       9.662       9.517       9.421       9.319       9.167    
        9.026       8.864       8.703       8.516       8.328       8.178       8.006       7.809       7.578       7.356    
        7.129       6.825       6.569       6.358       6.175       6.023       5.849       5.707       5.613       5.525    
        5.403       5.262       5.146       5.016       4.885       4.789       4.673       4.527       4.248       3.893    
        3.621       3.365       2.973       2.358       1.629       1.169      0.8283      0.5058      0.2523       0.000    
  11    10.00       9.974       9.934       9.855       9.746       9.597       9.469       9.389       9.267       9.138    
        9.003       8.833       8.641       8.441       8.283       8.123       7.962       7.751       7.527       7.309    
        6.989       6.695       6.489       6.299       6.121       5.954       5.790       5.677       5.598       5.511    
        5.372       5.240       5.142       5.026       4.917       4.809       4.678       4.520       4.257       3.972    
        3.684       3.351       2.924       2.246       1.563       1.100      0.7765      0.5890      0.3253       0.000    
  12    10.00       9.972       9.916       9.814       9.673       9.526       9.424       9.344       9.238       9.121    
        8.974       8.793       8.602       8.424       8.262       8.086       7.901       7.686       7.460       7.165    
        6.850       6.626       6.424       6.230       6.034       5.868       5.751       5.664       5.563       5.454    
        5.331       5.231       5.144       5.051       4.954       4.846       4.704       4.510       4.267       4.009    
        3.700       3.337       2.752       1.990       1.410       1.083      0.8623      0.6251      0.3563       0.000    
  13    10.00       9.963       9.876       9.737       9.590       9.464       9.382       9.312       9.222       9.110    
        8.955       8.768       8.591       8.449       8.262       8.045       7.830       7.597       7.345       7.058    
        6.782       6.540       6.321       6.121       5.933       5.810       5.733       5.615       5.486       5.388    
        5.308       5.228       5.149       5.070       4.978       4.883       4.753       4.531       4.280       3.975    
        3.620       3.161       2.484       1.867       1.444       1.165      0.9068      0.6268      0.3096       0.000    
  14    10.00       9.933       9.808       9.656       9.520       9.421       9.366       9.301       9.215       9.093    
        8.922       8.763       8.618       8.470       8.260       8.005       7.773       7.509       7.229       6.931    
        6.663       6.421       6.204       6.006       5.858       5.774       5.681       5.539       5.429       5.353    
        5.295       5.219       5.152       5.078       4.994       4.917       4.765       4.538       4.271       3.891    
        3.473       2.933       2.411       1.959       1.537       1.210      0.9229      0.6274      0.2794       0.000    
  15    10.00       9.874       9.736       9.600       9.492       9.416       9.355       9.295       9.210       9.096    
        8.946       8.790       8.649       8.442       8.198       7.954       7.695       7.422       7.088       6.769    
        6.520       6.286       6.081       5.927       5.815       5.724       5.613       5.480       5.389       5.333    
        5.268       5.206       5.153       5.084       5.005       4.921       4.761       4.544       4.210       3.799    
        3.364       2.878       2.454       1.987       1.631       1.282      0.9344      0.6214      0.2548       0.000    
  16    10.00       9.854       9.704       9.580       9.487       9.418       9.355       9.300       9.218       9.100    
        8.960       8.812       8.638       8.379       8.113       7.911       7.658       7.292       6.910       6.612    
        6.352       6.155       5.988       5.856       5.733       5.649       5.528       5.419       5.347       5.285    
        5.236       5.195       5.138       5.075       5.005       4.909       4.762       4.501       4.135       3.760    
        3.387       2.917       2.439       2.026       1.691       1.324      0.9315      0.5567      0.2095       0.000    
  17    10.00       9.835       9.684       9.585       9.502       9.432       9.371       9.308       9.220       9.111    
        8.980       8.795       8.559       8.281       8.057       7.866       7.559       7.149       6.759       6.469    
        6.258       6.038       5.852       5.715       5.612       5.509       5.402       5.332       5.272       5.234    
        5.213       5.174       5.116       5.052       4.980       4.878       4.705       4.478       4.180       3.785    
        3.357       2.861       2.418       2.054       1.710       1.334      0.9512      0.5800      0.2451       0.000    
  18    10.00       9.825       9.684       9.599       9.524       9.456       9.396       9.320       9.233       9.116    
        8.960       8.743       8.482       8.245       8.026       7.747       7.391       7.016       6.672       6.386    
        6.127       5.845       5.682       5.567       5.477       5.362       5.291       5.231       5.192       5.188    
        5.175       5.141       5.083       5.012       4.937       4.828       4.661       4.474       4.215       3.850    
        3.294       2.764       2.403       2.056       1.763       1.367      0.9455      0.5685      0.2448       0.000    
  19    10.00       9.833       9.716       9.628       9.548       9.480       9.409       9.339       9.259       9.124    
        8.941       8.709       8.450       8.187       7.899       7.597       7.266       6.904       6.557       6.253    
        5.953       5.703       5.573       5.482       5.357       5.254       5.194       5.140       5.128       5.125    
        5.122       5.097       5.031       4.964       4.900       4.814       4.655       4.449       4.188       3.759    
        3.199       2.749       2.388       2.047       1.719       1.311      0.9078      0.5648      0.2661       0.000    
  20    10.00       9.843       9.742       9.665       9.588       9.508       9.425       9.349       9.268       9.132    
        8.933       8.692       8.391       8.050       7.719       7.472       7.138       6.748       6.442       6.139    
        5.870       5.663       5.504       5.368       5.209       5.136       5.096       5.067       5.068       5.066    
        5.066       5.034       4.976       4.932       4.876       4.787       4.605       4.397       4.097       3.617    
        3.134       2.774       2.357       1.968       1.611       1.209      0.9103      0.5607      0.2486       0.000    
  21    10.00       9.866       9.776       9.698       9.614       9.537       9.445       9.363       9.276       9.122    
        8.909       8.616       8.241       7.842       7.532       7.305       6.990       6.703       6.415       6.088    
        5.831       5.603       5.404       5.148       5.015       4.977       4.921       4.954       4.985       4.982    
        4.977       4.945       4.924       4.896       4.846       4.722       4.540       4.358       3.924       3.424    
        3.065       2.677       2.252       1.890       1.512       1.161      0.8241      0.4940      0.2481       0.000    
  22    10.00       9.895       9.800       9.715       9.634       9.562       9.458       9.352       9.250       9.092    
        8.832       8.464       8.041       7.665       7.397       7.160       6.918       6.710       6.394       6.073    
        5.803       5.477       5.122       4.853       4.753       4.656       4.668       4.769       4.809       4.830    
        4.847       4.842       4.853       4.854       4.806       4.673       4.486       4.152       3.658       3.339    
        2.953       2.536       2.155       1.807       1.485       1.068      0.7151      0.4736      0.2662       0.000    
  23    10.00       9.896       9.805       9.728       9.643       9.547       9.430       9.334       9.245       9.046    
        8.727       8.331       7.945       7.616       7.341       7.139       6.912       6.639       6.336       6.080    
        5.705       5.227       4.846       4.571       4.169       4.170       4.385       4.507       4.597       4.681    
        4.719       4.748       4.778       4.794       4.746       4.610       4.335       3.947       3.544       3.154    
        2.787       2.442       2.076       1.801       1.394      0.9709      0.6955      0.4553      0.2364       0.000    
  24    10.00       9.919       9.816       9.715       9.617       9.507       9.401       9.319       9.220       8.985    
        8.622       8.248       7.927       7.641       7.379       7.115       6.836       6.587       6.346       6.046    
        5.598       5.124       4.671       3.842       2.955       3.474       3.973       4.264       4.426       4.560    
        4.631       4.675       4.715       4.716       4.664       4.490       4.183       3.860       3.415       3.000    
        2.713       2.381       2.035       1.684       1.247      0.9007      0.6690      0.4265      0.1882       0.000    
  25    10.00       9.912       9.792       9.670       9.554       9.455       9.374       9.292       9.169       8.926    
        8.544       8.195       7.950       7.683       7.380       7.106       6.844       6.627       6.404       6.018    
        5.505       5.037       4.313       2.964      0.1414       2.867       3.655       4.114       4.355       4.494    
        4.576       4.630       4.663       4.649       4.583       4.392       4.065       3.691       3.329       2.975    
        2.647       2.288       1.894       1.524       1.109      0.8272      0.6663      0.4146      0.1537       0.000    
  26    10.00       9.889       9.736       9.598       9.505       9.425       9.345       9.244       9.099       8.798    
        8.441       8.198       7.962       7.696       7.413       7.149       6.904       6.690       6.410       6.000    
        5.548       5.033       4.400       3.672       3.002       3.359       3.828       4.152       4.348       4.476    
        4.553       4.607       4.622       4.594       4.503       4.278       3.918       3.616       3.324       2.943    
        2.601       2.196       1.744       1.347       1.009      0.8096      0.6303      0.3696      0.1573       0.000    
  27    10.00       9.865       9.702       9.573       9.495       9.389       9.284       9.155       8.960       8.674    
        8.421       8.205       7.966       7.706       7.428       7.219       7.051       6.764       6.411       5.993    
        5.609       5.237       4.730       4.253       3.876       3.936       4.117       4.275       4.400       4.489    
        4.568       4.608       4.605       4.554       4.432       4.177       3.892       3.626       3.288       2.930    
        2.576       2.087       1.570       1.198      0.9629      0.7965      0.5994      0.3908      0.1884       0.000    
  28    10.00       9.847       9.728       9.583       9.449       9.320       9.203       9.051       8.856       8.633    
        8.425       8.231       7.993       7.703       7.456       7.290       7.102       6.784       6.375       6.005    
        5.735       5.458       5.062       4.692       4.455       4.377       4.372       4.421       4.499       4.569    
        4.615       4.621       4.600       4.524       4.367       4.137       3.911       3.600       3.249       2.889    
        2.459       1.999       1.486       1.117      0.9523      0.7933      0.6180      0.4081      0.1892       0.000    
  29    10.00       9.852       9.703       9.550       9.389       9.265       9.132       8.963       8.798       8.621    
        8.434       8.242       8.010       7.765       7.555       7.358       7.108       6.753       6.380       6.093    
        5.865       5.623       5.300       4.972       4.779       4.672       4.606       4.602       4.636       4.654    
        4.652       4.637       4.594       4.494       4.317       4.122       3.914       3.625       3.237       2.782    
        2.389       1.901       1.390       1.100      0.9553      0.7989      0.6133      0.3987      0.1982       0.000    
  30    10.00       9.830       9.680       9.496       9.333       9.218       9.076       8.927       8.799       8.640    
        8.448       8.239       8.027       7.832       7.645       7.423       7.103       6.773       6.476       6.206    
        6.011       5.773       5.480       5.197       4.963       4.867       4.802       4.773       4.746       4.719    
        4.687       4.653       4.589       4.460       4.301       4.148       3.941       3.569       3.091       2.629    
        2.233       1.787       1.398       1.130      0.9771      0.8007      0.6025      0.4179      0.2050       0.000    
  31    10.00       9.808       9.634       9.458       9.310       9.191       9.056       8.924       8.797       8.640    
        8.450       8.239       8.056       7.893       7.717       7.466       7.150       6.866       6.634       6.396    
        6.190       5.923       5.635       5.396       5.158       5.001       4.933       4.868       4.819       4.766    
        4.722       4.665       4.577       4.452       4.301       4.132       3.805       3.392       2.996       2.548    
        2.174       1.730       1.352       1.159      0.9952      0.8292      0.6228      0.4184      0.1983       0.000    
  32    10.00       9.793       9.606       9.454       9.330       9.211       9.070       8.919       8.764       8.616    
        8.428       8.245       8.081       7.901       7.736       7.522       7.279       7.067       6.830       6.585    
        6.378       6.129       5.839       5.584       5.336       5.114       5.024       4.941       4.871       4.796    
        4.735       4.680       4.564       4.413       4.272       4.039       3.636       3.251       2.905       2.497    
        2.063       1.650       1.373       1.225       1.046      0.8364      0.6181      0.3975      0.1983       0.000    
  33    10.00       9.786       9.626       9.504       9.380       9.241       9.071       8.903       8.736       8.567    
        8.409       8.255       8.093       7.922       7.739       7.573       7.395       7.215       7.021       6.782    
        6.541       6.307       6.065       5.769       5.463       5.212       5.080       4.996       4.908       4.815    
        4.746       4.664       4.538       4.395       4.192       3.871       3.462       3.139       2.807       2.335    
        1.942       1.673       1.454       1.277       1.073      0.8528      0.5855      0.3497      0.1575       0.000    
  34    10.00       9.805       9.673       9.559       9.421       9.250       9.071       8.874       8.689       8.547    
        8.406       8.266       8.120       7.943       7.781       7.620       7.467       7.324       7.138       6.895    
        6.666       6.456       6.217       5.908       5.572       5.291       5.123       5.022       4.925       4.821    
        4.731       4.640       4.517       4.337       4.089       3.693       3.298       3.012       2.621       2.207    
        1.967       1.791       1.580       1.352       1.084      0.7733      0.4730      0.2800      0.1161       0.000    
  35    10.00       9.837       9.719       9.602       9.454       9.262       9.056       8.837       8.662       8.539    
        8.446       8.304       8.141       7.953       7.780       7.666       7.554       7.406       7.213       6.982    
        6.765       6.557       6.336       5.987       5.605       5.336       5.153       5.039       4.927       4.808    
        4.718       4.614       4.468       4.230       3.842       3.434       3.174       2.880       2.483       2.237    
        2.070       1.870       1.658       1.436       1.096      0.6575      0.3632      0.2387      0.1211       0.000    
  36    10.00       9.856       9.753       9.642       9.484       9.255       9.003       8.797       8.671       8.578    
        8.450       8.287       8.137       7.970       7.819       7.706       7.598       7.467       7.314       7.100    
        6.875       6.656       6.381       6.002       5.627       5.354       5.181       5.047       4.905       4.789    
        4.685       4.552       4.317       3.960       3.607       3.332       3.091       2.784       2.473       2.311    
        2.142       1.962       1.748       1.462      0.9999      0.5534      0.3410      0.2182      0.1121       0.000    
  37    10.00       9.871       9.791       9.671       9.460       9.209       8.987       8.826       8.722       8.609    
        8.443       8.269       8.139       7.995       7.854       7.745       7.646       7.524       7.363       7.175    
        6.991       6.751       6.404       6.044       5.685       5.376       5.165       4.995       4.863       4.744    
        4.617       4.417       4.063       3.743       3.502       3.266       3.020       2.781       2.561       2.380    
        2.218       2.016       1.773       1.397      0.9158      0.5333      0.3193      0.2029      0.1017       0.000    
  38    10.00       9.890       9.794       9.662       9.443       9.184       8.995       8.877       8.769       8.634    
        8.457       8.276       8.148       8.015       7.874       7.765       7.678       7.571       7.412       7.250    
        7.079       6.798       6.401       6.009       5.648       5.344       5.111       4.922       4.794       4.681    
        4.513       4.181       3.874       3.678       3.442       3.211       3.035       2.836       2.636       2.463    
        2.272       1.997       1.689       1.281      0.8040      0.5107      0.3592      0.2238      0.1004       0.000    
  39    10.00       9.889       9.779       9.641       9.429       9.194       9.024       8.919       8.785       8.636    
        8.493       8.310       8.164       8.037       7.901       7.785       7.686       7.580       7.452       7.305    
        7.101       6.796       6.379       5.938       5.566       5.280       5.014       4.818       4.724       4.612    
        4.343       4.009       3.825       3.604       3.386       3.224       3.081       2.900       2.706       2.545    
        2.268       1.880       1.518       1.077      0.7167      0.5530      0.4116      0.2680      0.1379       0.000    
  40    10.00       9.879       9.783       9.642       9.447       9.250       9.084       8.943       8.785       8.649    
        8.541       8.362       8.177       8.048       7.923       7.791       7.681       7.597       7.484       7.302    
        7.064       6.709       6.283       5.868       5.491       5.191       4.886       4.734       4.650       4.499    
        4.256       4.016       3.768       3.542       3.391       3.253       3.118       2.949       2.771       2.560    
        2.186       1.763       1.372       1.016      0.7687      0.6001      0.4593      0.3241      0.1591       0.000    
  41    10.00       9.896       9.818       9.681       9.480       9.275       9.116       8.989       8.834       8.672    
        8.542       8.377       8.206       8.084       7.938       7.779       7.686       7.594       7.443       7.241    
        6.992       6.643       6.215       5.811       5.434       5.031       4.752       4.673       4.580       4.469    
        4.280       3.992       3.745       3.569       3.420       3.298       3.149       2.989       2.805       2.475    
        2.038       1.627       1.287       1.025      0.8116      0.6552      0.5047      0.3565      0.1877       0.000    
  42    10.00       9.922       9.836       9.704       9.530       9.333       9.153       9.023       8.882       8.701    
        8.535       8.377       8.230       8.114       7.959       7.792       7.677       7.550       7.384       7.152    
        6.864       6.480       6.105       5.703       5.210       4.858       4.718       4.655       4.576       4.458    
        4.237       3.986       3.758       3.581       3.462       3.333       3.201       3.028       2.735       2.297    
        1.916       1.610       1.316       1.020      0.8218      0.6888      0.5445      0.3711      0.2059       0.000    
  43    10.00       9.938       9.846       9.709       9.537       9.373       9.213       9.066       8.891       8.703    
        8.550       8.390       8.245       8.136       7.990       7.800       7.646       7.501       7.273       6.977    
        6.697       6.327       5.982       5.519       5.057       4.830       4.721       4.649       4.574       4.451    
        4.241       4.013       3.795       3.624       3.510       3.382       3.210       2.963       2.533       2.147    
        1.910       1.639       1.329       1.023      0.8134      0.6905      0.5793      0.4012      0.1880       0.000    
  44    10.00       9.931       9.852       9.709       9.552       9.434       9.272       9.070       8.871       8.714    
        8.561       8.399       8.272       8.157       7.985       7.780       7.602       7.428       7.159       6.865    
        6.531       6.164       5.797       5.336       4.993       4.826       4.733       4.671       4.590       4.433    
        4.221       4.039       3.848       3.689       3.573       3.396       3.167       2.813       2.379       2.124    
        1.907       1.625       1.316       1.037      0.8230      0.6923      0.5796      0.3930      0.1731       0.000    
  45    10.00       9.916       9.821       9.706       9.591       9.439       9.266       9.074       8.876       8.717    
        8.557       8.411       8.299       8.166       7.976       7.755       7.556       7.359       7.068       6.725    
        6.341       5.955       5.561       5.225       4.989       4.849       4.759       4.693       4.589       4.462    
        4.279       4.072       3.901       3.738       3.571       3.384       3.134       2.757       2.382       2.085    
        1.838       1.573       1.284       1.035      0.8486      0.7402      0.5720      0.3405      0.1552       0.000    
  46    10.00       9.899       9.799       9.707       9.577       9.401       9.234       9.076       8.880       8.711    
        8.569       8.433       8.319       8.158       7.956       7.758       7.547       7.290       6.976       6.603    
        6.155       5.772       5.460       5.206       5.027       4.903       4.792       4.702       4.620       4.478    
        4.284       4.104       3.936       3.748       3.582       3.405       3.123       2.690       2.296       2.033    
        1.801       1.547       1.276       1.058      0.9135      0.7740      0.5186      0.2549      0.1108       0.000    
  47    10.00       9.892       9.791       9.664       9.512       9.367       9.223       9.052       8.873       8.722    
        8.592       8.470       8.308       8.134       7.951       7.759       7.526       7.226       6.934       6.482    
        5.997       5.699       5.432       5.233       5.067       4.945       4.833       4.724       4.629       4.482    
        4.278       4.101       3.931       3.753       3.611       3.397       3.005       2.617       2.288       2.008    
        1.806       1.566       1.325       1.114      0.9354      0.7100      0.4266      0.2229      9.2846E-02   0.000    
  48    10.00       9.879       9.758       9.622       9.484       9.356       9.210       9.053       8.888       8.739    
        8.606       8.463       8.285       8.105       7.927       7.736       7.512       7.230       6.866       6.419    
        6.001       5.696       5.436       5.254       5.119       4.968       4.855       4.763       4.646       4.446    
        4.246       4.073       3.917       3.786       3.598       3.315       2.944       2.595       2.284       2.037    
        1.819       1.590       1.374       1.135      0.8673      0.5767      0.3645      0.2162      9.7669E-02   0.000    
  49    10.00       9.869       9.737       9.603       9.490       9.357       9.203       9.049       8.915       8.760    
        8.601       8.420       8.245       8.094       7.890       7.705       7.518       7.203       6.844       6.488    
        6.047       5.708       5.449       5.289       5.130       4.968       4.880       4.792       4.603       4.362    
        4.192       4.053       3.941       3.770       3.552       3.300       2.928       2.581       2.337       2.075    
        1.817       1.608       1.377       1.095      0.7678      0.5141      0.3646      0.2353      0.1207       0.000    
  50    10.00       9.873       9.741       9.606       9.482       9.352       9.214       9.062       8.921       8.783    
        8.587       8.398       8.238       8.036       7.829       7.687       7.510       7.265       6.910       6.558    
        6.108       5.681       5.456       5.294       5.128       4.996       4.890       4.772       4.547       4.320    
        4.179       4.065       3.933       3.756       3.554       3.314       2.938       2.582       2.344       2.108    
        1.864       1.599       1.340       1.039      0.7157      0.5261      0.3922      0.2658      0.1603       0.000    

 HEAD WILL BE SAVED ON UNIT   51 AT END OF TIME STEP  40, STRESS PERIOD    2

 DRAWDOWN WILL BE SAVED ON UNIT   52 AT END OF TIME STEP  40, STRESS PERIOD    2
1
  VOLUMETRIC BUDGET FOR ENTIRE MODEL AT END OF TIME STEP 40 IN STRESS PERIOD   2
  ------------------------------------------------------------------------------

     CUMULATIVE VOLUMES      L**3       RATES FOR THIS TIME STEP      L**3/T
     ------------------                 ------------------------

           IN:                                      IN:
           ---                                      ---
             STORAGE =       19914.1641               STORAGE =         490.6555
       CONSTANT HEAD =       15352.6650         CONSTANT HEAD =         381.2120
               WELLS =           0.0000                 WELLS =           0.0000

            TOTAL IN =       35266.8281              TOTAL IN =         871.8676

          OUT:                                     OUT:
          ----                                     ----
             STORAGE =       1.1143E-02               STORAGE =           0.0000
       CONSTANT HEAD =       15266.8164         CONSTANT HEAD =         371.8670
               WELLS =       20000.0000                 WELLS =         500.0000

           TOTAL OUT =       35266.8281             TOTAL OUT =         871.8671

            IN - OUT =           0.0000              IN - OUT =       4.8828E-04

 PERCENT DISCREPANCY =           0.00     PERCENT DISCREPANCY =           0.00






          TIME SUMMARY AT END OF TIME STEP  40 IN STRESS PERIOD    2
                    SECONDS     MINUTES      HOURS       DAYS        YEARS
                    -----------------------------------------------------------
   TIME STEP LENGTH  86400.      1440.0      24.000      1.0000     2.73785E-03
 STRESS PERIOD TIME 3.45600E+06  57600.      960.00      40.000     0.10951    
         TOTAL TIME 3.54240E+06  59040.      984.00      41.000     0.11225    
1
 
 SOLVING FOR HEAD 

 OUTPUT CONTROL FOR STRESS PERIOD    2   TIME STEP  41
    SAVE HEAD FOR ALL LAYERS
    SAVE DRAWDOWN FOR ALL LAYERS
    SAVE BUDGET
    PRINT HEAD FOR ALL LAYERS
    PRINT BUDGET
 UBDSV1 SAVING "         STORAGE" ON UNIT  53 AT TIME STEP 41, STRESS PERIOD   2
 UBDSV2 SAVING "   CONSTANT HEAD" ON UNIT  53 AT TIME STEP 41, STRESS PERIOD   2
 UBDSV1 SAVING "FLOW RIGHT FACE " ON UNIT  53 AT TIME STEP 41, STRESS PERIOD   2
 UBDSV1 SAVING "FLOW FRONT FACE " ON UNIT  53 AT TIME STEP 41, STRESS PERIOD   2
1
              HEAD IN LAYER   1 AT END OF TIME STEP  41 IN STRESS PERIOD    2
  ---------------------------------------------------------------------------

            1           2           3           4           5           6           7           8           9          10
           11          12          13          14          15          16          17          18          19          20
           21          22          23          24          25          26          27          28          29          30
           31          32          33          34          35          36          37          38          39          40
           41          42          43          44          45          46          47          48          49          50
 ........................................................................................................................
   1    10.00       9.953       9.906       9.850       9.806       9.770       9.720       9.652       9.578       9.509    
        9.358       9.168       9.028       8.872       8.706       8.538       8.382       8.203       7.963       7.725    
        7.562       7.375       7.129       6.880       6.657       6.463       6.187       5.934       5.756       5.568    
        5.406       5.301       5.185       5.054       4.928       4.772       4.603       4.376       4.115       3.830    
        3.463       3.090       2.601       2.068       1.667       1.379       1.164      0.9176      0.5386       0.000    
   2    10.00       9.948       9.897       9.850       9.814       9.778       9.723       9.653       9.585       9.492    
        9.345       9.175       9.018       8.876       8.722       8.549       8.364       8.179       7.956       7.715    
        7.537       7.385       7.122       6.853       6.655       6.436       6.169       5.928       5.723       5.546    
        5.409       5.311       5.214       5.073       4.926       4.771       4.577       4.365       4.113       3.788    
        3.444       3.127       2.613       2.084       1.728       1.471       1.223      0.9477      0.5721       0.000    
   3    10.00       9.939       9.897       9.865       9.829       9.792       9.733       9.651       9.568       9.467    
        9.333       9.183       9.031       8.888       8.705       8.488       8.308       8.149       7.943       7.732    
        7.549       7.332       7.074       6.836       6.621       6.376       6.121       5.883       5.672       5.539    
        5.426       5.332       5.234       5.080       4.925       4.760       4.568       4.331       4.049       3.800    
        3.496       3.063       2.562       2.181       1.879       1.579       1.274      0.9605      0.5421       0.000    
   4    10.00       9.939       9.902       9.873       9.849       9.809       9.741       9.646       9.548       9.448    
        9.320       9.185       9.034       8.854       8.630       8.429       8.300       8.120       7.921       7.756    
        7.508       7.232       7.005       6.795       6.586       6.293       6.011       5.821       5.676       5.561    
        5.459       5.360       5.254       5.075       4.884       4.735       4.533       4.288       4.046       3.827    
        3.481       3.003       2.625       2.304       1.979       1.639       1.270      0.9043      0.4633       0.000    
   5    10.00       9.944       9.910       9.881       9.859       9.819       9.747       9.638       9.529       9.429    
        9.320       9.181       8.988       8.777       8.588       8.429       8.268       8.101       7.915       7.683    
        7.395       7.168       6.979       6.765       6.499       6.196       5.963       5.827       5.707       5.592    
        5.474       5.354       5.233       5.061       4.867       4.686       4.505       4.310       4.090       3.801    
        3.409       3.044       2.720       2.396       2.040       1.644       1.182      0.7617      0.3944       0.000    
   6    10.00       9.954       9.920       9.892       9.862       9.817       9.741       9.624       9.528       9.421    
        9.300       9.129       8.916       8.742       8.567       8.386       8.223       8.074       7.866       7.603    
        7.348       7.130       6.938       6.674       6.386       6.155       5.966       5.838       5.707       5.587    
        5.483       5.351       5.200       5.023       4.834       4.679       4.520       4.344       4.111       3.799    
        3.455       3.102       2.770       2.443       2.057       1.578       1.080      0.7164      0.3688       0.000    
   7    10.00       9.960       9.931       9.901       9.868       9.815       9.713       9.600       9.501       9.369    
        9.245       9.063       8.871       8.692       8.513       8.330       8.171       8.034       7.796       7.517    
        7.286       7.066       6.852       6.596       6.350       6.139       5.972       5.822       5.682       5.587    
        5.481       5.336       5.175       4.995       4.831       4.693       4.547       4.365       4.126       3.841    
        3.499       3.135       2.790       2.429       2.048       1.545       1.033      0.6824      0.3229       0.000    
   8    10.00       9.967       9.941       9.908       9.871       9.785       9.661       9.554       9.431       9.305    
        9.168       8.982       8.820       8.638       8.438       8.260       8.122       7.960       7.736       7.465    
        7.198       6.996       6.818       6.556       6.301       6.112       5.924       5.762       5.665       5.574    
        5.448       5.304       5.167       5.008       4.835       4.691       4.579       4.440       4.205       3.877    
        3.501       3.177       2.854       2.433       2.008       1.446      0.9574      0.6685      0.3094       0.000    
   9    10.00       9.974       9.945       9.908       9.845       9.732       9.600       9.476       9.368       9.239    
        9.077       8.913       8.751       8.577       8.372       8.205       8.076       7.885       7.665       7.390    
        7.158       6.957       6.707       6.441       6.225       6.057       5.868       5.730       5.636       5.532    
        5.417       5.286       5.157       5.018       4.870       4.731       4.615       4.490       4.248       3.892    
        3.545       3.256       2.916       2.508       1.879       1.245      0.9122      0.5654      0.2157       0.000    
  10    10.00       9.974       9.943       9.892       9.796       9.662       9.516       9.420       9.318       9.166    
        9.024       8.862       8.701       8.514       8.325       8.174       8.001       7.804       7.573       7.350    
        7.123       6.818       6.561       6.350       6.166       6.015       5.841       5.698       5.604       5.517    
        5.394       5.254       5.138       5.009       4.878       4.782       4.667       4.521       4.243       3.890    
        3.618       3.363       2.971       2.357       1.629       1.169      0.8281      0.5056      0.2522       0.000    
  11    10.00       9.974       9.934       9.854       9.746       9.597       9.468       9.387       9.266       9.136    
        9.001       8.830       8.638       8.438       8.279       8.118       7.958       7.745       7.521       7.302    
        6.981       6.687       6.480       6.290       6.112       5.945       5.780       5.668       5.588       5.502    
        5.363       5.231       5.134       5.018       4.909       4.802       4.672       4.514       4.252       3.968    
        3.681       3.348       2.922       2.245       1.563       1.099      0.7762      0.5888      0.3252       0.000    
  12    10.00       9.972       9.916       9.814       9.673       9.525       9.423       9.342       9.236       9.119    
        8.972       8.791       8.599       8.420       8.258       8.081       7.896       7.680       7.453       7.158    
        6.841       6.617       6.414       6.220       6.024       5.857       5.740       5.654       5.553       5.444    
        5.321       5.221       5.135       5.042       4.946       4.839       4.697       4.505       4.261       4.005    
        3.697       3.334       2.750       1.989       1.409       1.083      0.8621      0.6249      0.3562       0.000    
  13    10.00       9.963       9.875       9.737       9.590       9.463       9.381       9.310       9.220       9.108    
        8.952       8.765       8.588       8.445       8.258       8.040       7.824       7.590       7.337       7.050    
        6.772       6.530       6.310       6.109       5.921       5.799       5.722       5.604       5.475       5.377    
        5.297       5.218       5.139       5.061       4.970       4.874       4.745       4.525       4.274       3.971    
        3.616       3.159       2.483       1.866       1.443       1.165      0.9065      0.6266      0.3095       0.000    
  14    10.00       9.932       9.807       9.655       9.519       9.419       9.364       9.300       9.213       9.091    
        8.920       8.760       8.614       8.466       8.255       7.999       7.766       7.502       7.220       6.921    
        6.652       6.410       6.192       5.994       5.846       5.761       5.669       5.527       5.417       5.342    
        5.283       5.208       5.142       5.068       4.985       4.908       4.757       4.531       4.266       3.887    
        3.469       2.931       2.409       1.958       1.537       1.210      0.9226      0.6272      0.2793       0.000    
  15    10.00       9.874       9.735       9.599       9.491       9.414       9.354       9.293       9.208       9.094    
        8.943       8.787       8.645       8.437       8.192       7.947       7.688       7.413       7.078       6.758    
        6.508       6.273       6.068       5.914       5.802       5.711       5.600       5.467       5.376       5.321    
        5.256       5.194       5.142       5.073       4.994       4.911       4.752       4.537       4.204       3.794    
        3.361       2.875       2.452       1.986       1.631       1.282      0.9341      0.6212      0.2548       0.000    
  16    10.00       9.853       9.703       9.579       9.486       9.416       9.354       9.298       9.216       9.098    
        8.957       8.808       8.634       8.373       8.107       7.904       7.649       7.282       6.898       6.599    
        6.339       6.142       5.974       5.842       5.719       5.636       5.515       5.405       5.334       5.272    
        5.224       5.183       5.127       5.064       4.994       4.899       4.753       4.493       4.129       3.755    
        3.383       2.914       2.437       2.025       1.690       1.323      0.9312      0.5566      0.2095       0.000    
  17    10.00       9.834       9.684       9.584       9.501       9.430       9.369       9.306       9.218       9.108    
        8.977       8.791       8.554       8.274       8.050       7.858       7.549       7.137       6.746       6.456    
        6.244       6.024       5.837       5.700       5.597       5.494       5.387       5.317       5.258       5.221    
        5.200       5.161       5.104       5.041       4.969       4.868       4.696       4.469       4.173       3.780    
        3.354       2.859       2.417       2.053       1.710       1.333      0.9509      0.5799      0.2451       0.000    
  18    10.00       9.825       9.684       9.598       9.522       9.455       9.394       9.318       9.231       9.114    
        8.957       8.739       8.476       8.238       8.018       7.738       7.380       7.004       6.658       6.372    
        6.112       5.829       5.666       5.551       5.461       5.346       5.275       5.215       5.177       5.174    
        5.161       5.127       5.070       5.000       4.925       4.817       4.651       4.465       4.208       3.844    
        3.290       2.762       2.401       2.055       1.762       1.367      0.9453      0.5683      0.2448       0.000    
  19    10.00       9.833       9.715       9.627       9.547       9.479       9.408       9.337       9.257       9.121    
        8.937       8.704       8.444       8.180       7.890       7.587       7.254       6.890       6.542       6.238    
        5.937       5.687       5.556       5.466       5.341       5.237       5.178       5.124       5.112       5.109    
        5.107       5.083       5.017       4.951       4.888       4.803       4.645       4.440       4.181       3.754    
        3.196       2.747       2.387       2.046       1.719       1.310      0.9076      0.5647      0.2661       0.000    
  20    10.00       9.842       9.742       9.664       9.587       9.507       9.423       9.347       9.266       9.129    
        8.929       8.687       8.385       8.042       7.709       7.461       7.125       6.733       6.426       6.123    
        5.853       5.646       5.487       5.351       5.192       5.119       5.079       5.051       5.052       5.050    
        5.050       5.018       4.961       4.919       4.863       4.775       4.594       4.388       4.090       3.612    
        3.131       2.772       2.356       1.967       1.610       1.209      0.9102      0.5606      0.2485       0.000    
  21    10.00       9.865       9.775       9.697       9.613       9.536       9.443       9.361       9.274       9.119    
        8.904       8.610       8.234       7.832       7.520       7.292       6.976       6.688       6.399       6.072    
        5.814       5.585       5.387       5.130       4.998       4.960       4.903       4.937       4.968       4.965    
        4.960       4.929       4.909       4.882       4.833       4.710       4.530       4.349       3.917       3.420    
        3.062       2.675       2.250       1.889       1.511       1.160      0.8239      0.4939      0.2481       0.000    
  22    10.00       9.894       9.800       9.715       9.633       9.561       9.456       9.350       9.248       9.089    
        8.827       8.457       8.032       7.654       7.385       7.146       6.904       6.695       6.378       6.056    
        5.786       5.460       5.104       4.835       4.734       4.637       4.650       4.751       4.791       4.812    
        4.829       4.824       4.837       4.839       4.791       4.661       4.475       4.144       3.653       3.335    
        2.951       2.534       2.153       1.806       1.485       1.068      0.7149      0.4735      0.2662       0.000    
  23    10.00       9.896       9.805       9.728       9.642       9.546       9.428       9.332       9.243       9.042    
        8.721       8.324       7.935       7.604       7.329       7.126       6.897       6.624       6.320       6.063    
        5.688       5.209       4.828       4.552       4.150       4.151       4.366       4.489       4.578       4.662    
        4.701       4.730       4.760       4.777       4.731       4.597       4.325       3.940       3.539       3.150    
        2.785       2.441       2.075       1.800       1.393      0.9707      0.6954      0.4553      0.2364       0.000    
  24    10.00       9.919       9.815       9.715       9.616       9.505       9.399       9.317       9.217       8.982    
        8.616       8.240       7.918       7.629       7.366       7.101       6.821       6.571       6.330       6.029    
        5.580       5.105       4.652       3.822       2.935       3.454       3.953       4.245       4.407       4.540    
        4.612       4.656       4.697       4.698       4.648       4.477       4.173       3.853       3.411       2.996    
        2.711       2.380       2.034       1.683       1.247      0.9006      0.6689      0.4265      0.1881       0.000    
  25    10.00       9.911       9.792       9.669       9.553       9.453       9.372       9.289       9.166       8.922    
        8.537       8.187       7.940       7.671       7.367       7.092       6.829       6.612       6.388       6.001    
        5.487       5.019       4.293       2.944      0.1198       2.847       3.634       4.094       4.335       4.475    
        4.557       4.611       4.644       4.632       4.567       4.379       4.056       3.684       3.324       2.971    
        2.644       2.286       1.893       1.523       1.109      0.8270      0.6662      0.4146      0.1537       0.000    
  26    10.00       9.889       9.736       9.597       9.504       9.423       9.343       9.241       9.095       8.793    
        8.435       8.189       7.953       7.685       7.400       7.136       6.889       6.674       6.394       5.982    
        5.530       5.014       4.380       3.652       2.982       3.339       3.808       4.132       4.328       4.456    
        4.533       4.588       4.603       4.577       4.487       4.265       3.909       3.609       3.319       2.939    
        2.599       2.194       1.743       1.346       1.009      0.8094      0.6301      0.3695      0.1573       0.000    
  27    10.00       9.864       9.701       9.572       9.493       9.387       9.281       9.152       8.957       8.669    
        8.415       8.197       7.957       7.695       7.416       7.207       7.038       6.749       6.395       5.976    
        5.591       5.219       4.711       4.233       3.856       3.916       4.097       4.255       4.380       4.470    
        4.549       4.589       4.587       4.537       4.417       4.164       3.882       3.619       3.282       2.926    
        2.574       2.085       1.570       1.198      0.9626      0.7963      0.5993      0.3907      0.1884       0.000    
  28    10.00       9.846       9.727       9.582       9.447       9.318       9.200       9.048       8.852       8.628    
        8.418       8.223       7.984       7.693       7.445       7.277       7.089       6.770       6.359       5.988    
        5.718       5.441       5.043       4.673       4.435       4.358       4.353       4.401       4.479       4.550    
        4.596       4.602       4.582       4.508       4.352       4.125       3.901       3.592       3.243       2.885    
        2.456       1.997       1.485       1.116      0.9520      0.7931      0.6178      0.4080      0.1892       0.000    
  29    10.00       9.851       9.702       9.548       9.387       9.262       9.129       8.960       8.794       8.615    
        8.428       8.235       8.001       7.755       7.544       7.346       7.095       6.739       6.364       6.077    
        5.848       5.606       5.282       4.954       4.760       4.653       4.587       4.583       4.617       4.636    
        4.634       4.619       4.577       4.478       4.303       4.111       3.904       3.617       3.231       2.778    
        2.387       1.899       1.389       1.100      0.9550      0.7987      0.6131      0.3986      0.1982       0.000    
  30    10.00       9.830       9.679       9.494       9.331       9.216       9.073       8.923       8.795       8.635    
        8.442       8.232       8.019       7.823       7.635       7.412       7.091       6.759       6.461       6.190    
        5.994       5.756       5.462       5.178       4.944       4.848       4.784       4.755       4.728       4.701    
        4.669       4.636       4.573       4.445       4.287       4.136       3.930       3.562       3.086       2.626    
        2.231       1.785       1.397       1.130      0.9767      0.8005      0.6023      0.4178      0.2049       0.000    
  31    10.00       9.807       9.633       9.456       9.308       9.188       9.053       8.920       8.793       8.636    
        8.444       8.232       8.048       7.885       7.707       7.455       7.138       6.853       6.620       6.381    
        6.174       5.907       5.617       5.378       5.140       4.983       4.915       4.850       4.802       4.749    
        4.706       4.648       4.561       4.438       4.288       4.120       3.796       3.386       2.992       2.545    
        2.173       1.729       1.352       1.158      0.9948      0.8289      0.6226      0.4183      0.1982       0.000    
  32    10.00       9.792       9.604       9.453       9.328       9.209       9.067       8.916       8.760       8.612    
        8.422       8.238       8.074       7.894       7.727       7.513       7.268       7.055       6.817       6.571    
        6.363       6.114       5.822       5.567       5.319       5.096       5.007       4.924       4.855       4.780    
        4.720       4.665       4.550       4.400       4.260       4.028       3.628       3.245       2.901       2.495    
        2.061       1.649       1.373       1.224       1.046      0.8361      0.6179      0.3974      0.1982       0.000    
  33    10.00       9.786       9.625       9.503       9.378       9.239       9.068       8.900       8.732       8.562    
        8.404       8.249       8.087       7.915       7.730       7.564       7.385       7.204       7.009       6.770    
        6.527       6.293       6.050       5.753       5.447       5.196       5.064       4.980       4.892       4.800    
        4.731       4.650       4.524       4.383       4.181       3.862       3.455       3.134       2.804       2.332    
        1.941       1.672       1.453       1.277       1.073      0.8525      0.5853      0.3496      0.1575       0.000    
  34    10.00       9.804       9.673       9.558       9.419       9.248       9.068       8.870       8.685       8.542    
        8.401       8.260       8.113       7.936       7.773       7.612       7.458       7.314       7.127       6.883    
        6.654       6.443       6.203       5.893       5.557       5.275       5.108       5.007       4.910       4.806    
        4.717       4.626       4.504       4.326       4.079       3.686       3.293       3.008       2.619       2.205    
        1.966       1.790       1.579       1.351       1.083      0.7731      0.4729      0.2799      0.1160       0.000    
  35    10.00       9.836       9.718       9.601       9.453       9.260       9.053       8.833       8.658       8.535    
        8.441       8.299       8.135       7.946       7.772       7.658       7.545       7.397       7.204       6.972    
        6.754       6.545       6.322       5.973       5.591       5.321       5.139       5.025       4.913       4.794    
        4.705       4.601       4.456       4.220       3.834       3.428       3.169       2.876       2.481       2.235    
        2.069       1.869       1.657       1.435       1.096      0.6572      0.3631      0.2386      0.1211       0.000    
  36    10.00       9.856       9.752       9.641       9.483       9.253       9.000       8.793       8.668       8.574    
        8.445       8.282       8.131       7.964       7.812       7.698       7.590       7.458       7.305       7.091    
        6.864       6.645       6.369       5.989       5.614       5.341       5.168       5.033       4.892       4.777    
        4.673       4.541       4.306       3.952       3.601       3.327       3.088       2.781       2.471       2.309    
        2.140       1.961       1.747       1.461      0.9995      0.5532      0.3409      0.2181      0.1121       0.000    
  37    10.00       9.871       9.791       9.670       9.459       9.207       8.984       8.823       8.719       8.606    
        8.438       8.264       8.134       7.989       7.847       7.738       7.638       7.516       7.354       7.166    
        6.982       6.740       6.393       6.033       5.673       5.365       5.153       4.983       4.853       4.733    
        4.606       4.408       4.056       3.738       3.497       3.262       3.017       2.779       2.559       2.379    
        2.217       2.015       1.772       1.396      0.9155      0.5331      0.3192      0.2028      0.1017       0.000    
  38    10.00       9.890       9.793       9.661       9.442       9.182       8.993       8.874       8.766       8.631    
        8.453       8.271       8.143       8.009       7.868       7.759       7.672       7.564       7.404       7.242    
        7.071       6.789       6.392       6.000       5.639       5.334       5.102       4.912       4.785       4.673    
        4.504       4.174       3.868       3.674       3.438       3.208       3.033       2.834       2.634       2.461    
        2.271       1.996       1.688       1.281      0.8037      0.5105      0.3591      0.2237      0.1004       0.000    
  39    10.00       9.888       9.778       9.640       9.428       9.193       9.022       8.916       8.782       8.633    
        8.489       8.306       8.159       8.032       7.896       7.779       7.680       7.574       7.445       7.298    
        7.094       6.789       6.371       5.930       5.558       5.273       5.007       4.811       4.717       4.606    
        4.337       4.005       3.821       3.600       3.383       3.221       3.078       2.898       2.704       2.543    
        2.267       1.879       1.517       1.077      0.7165      0.5529      0.4115      0.2679      0.1379       0.000    
  40    10.00       9.879       9.783       9.641       9.446       9.248       9.082       8.941       8.783       8.646    
        8.538       8.358       8.173       8.044       7.918       7.785       7.675       7.591       7.478       7.296    
        7.058       6.703       6.277       5.862       5.485       5.185       4.881       4.729       4.645       4.494    
        4.252       4.012       3.765       3.539       3.389       3.251       3.115       2.947       2.769       2.558    
        2.185       1.762       1.371       1.015      0.7685      0.6000      0.4592      0.3241      0.1591       0.000    
  41    10.00       9.896       9.818       9.680       9.479       9.273       9.114       8.987       8.832       8.669    
        8.539       8.374       8.202       8.080       7.933       7.775       7.681       7.589       7.437       7.236    
        6.988       6.639       6.210       5.807       5.430       5.027       4.749       4.670       4.576       4.465    
        4.277       3.988       3.742       3.566       3.418       3.296       3.147       2.987       2.803       2.474    
        2.037       1.626       1.287       1.025      0.8114      0.6550      0.5046      0.3564      0.1877       0.000    
  42    10.00       9.922       9.836       9.703       9.529       9.332       9.152       9.021       8.880       8.699    
        8.532       8.374       8.227       8.110       7.955       7.788       7.673       7.546       7.380       7.148    
        6.861       6.477       6.102       5.700       5.207       4.855       4.715       4.652       4.573       4.455    
        4.234       3.983       3.756       3.579       3.460       3.331       3.199       3.027       2.733       2.296    
        1.916       1.610       1.315       1.020      0.8216      0.6887      0.5444      0.3710      0.2059       0.000    
  43    10.00       9.938       9.845       9.709       9.536       9.372       9.212       9.065       8.889       8.701    
        8.548       8.387       8.242       8.133       7.987       7.797       7.642       7.497       7.270       6.974    
        6.694       6.325       5.980       5.517       5.055       4.827       4.719       4.646       4.572       4.448    
        4.239       4.011       3.793       3.622       3.508       3.381       3.208       2.961       2.532       2.147    
        1.909       1.639       1.329       1.023      0.8132      0.6903      0.5792      0.4012      0.1880       0.000    
  44    10.00       9.930       9.852       9.709       9.552       9.433       9.271       9.069       8.870       8.713    
        8.559       8.398       8.270       8.155       7.982       7.777       7.599       7.426       7.157       6.863    
        6.529       6.162       5.796       5.335       4.991       4.824       4.731       4.669       4.587       4.431    
        4.219       4.037       3.846       3.688       3.571       3.395       3.166       2.812       2.378       2.124    
        1.907       1.624       1.316       1.037      0.8229      0.6922      0.5795      0.3929      0.1731       0.000    
  45    10.00       9.916       9.821       9.705       9.591       9.438       9.266       9.073       8.875       8.716    
        8.556       8.410       8.297       8.164       7.974       7.753       7.554       7.358       7.067       6.723    
        6.340       5.954       5.560       5.224       4.988       4.847       4.757       4.691       4.587       4.460    
        4.277       4.070       3.900       3.736       3.569       3.383       3.133       2.757       2.381       2.084    
        1.838       1.572       1.284       1.034      0.8485      0.7401      0.5719      0.3404      0.1552       0.000    
  46    10.00       9.899       9.799       9.707       9.577       9.401       9.233       9.075       8.880       8.710    
        8.568       8.432       8.318       8.157       7.955       7.757       7.546       7.288       6.975       6.602    
        6.154       5.771       5.459       5.204       5.026       4.901       4.791       4.700       4.618       4.477    
        4.282       4.103       3.935       3.747       3.581       3.404       3.123       2.689       2.296       2.032    
        1.801       1.546       1.276       1.058      0.9134      0.7739      0.5185      0.2549      0.1108       0.000    
  47    10.00       9.892       9.791       9.663       9.511       9.367       9.223       9.052       8.873       8.721    
        8.591       8.469       8.307       8.133       7.950       7.758       7.525       7.226       6.933       6.481    
        5.996       5.699       5.431       5.232       5.066       4.944       4.832       4.723       4.628       4.481    
        4.277       4.100       3.930       3.752       3.610       3.396       3.005       2.617       2.288       2.008    
        1.805       1.565       1.325       1.114      0.9353      0.7099      0.4265      0.2229      9.2840E-02   0.000    
  48    10.00       9.879       9.758       9.622       9.484       9.356       9.210       9.053       8.888       8.739    
        8.606       8.462       8.284       8.105       7.926       7.735       7.511       7.230       6.866       6.418    
        6.000       5.696       5.435       5.253       5.118       4.967       4.853       4.762       4.645       4.445    
        4.245       4.072       3.916       3.785       3.597       3.315       2.943       2.595       2.283       2.037    
        1.819       1.590       1.374       1.135      0.8672      0.5767      0.3645      0.2162      9.7664E-02   0.000    
  49    10.00       9.869       9.737       9.603       9.490       9.357       9.202       9.048       8.915       8.760    
        8.600       8.419       8.244       8.094       7.890       7.704       7.518       7.203       6.843       6.487    
        6.047       5.707       5.448       5.288       5.129       4.967       4.879       4.791       4.602       4.362    
        4.191       4.052       3.940       3.769       3.551       3.299       2.928       2.580       2.337       2.074    
        1.817       1.608       1.377       1.095      0.7677      0.5141      0.3645      0.2353      0.1207       0.000    
  50    10.00       9.873       9.741       9.605       9.482       9.352       9.214       9.062       8.921       8.783    
        8.587       8.398       8.238       8.036       7.829       7.687       7.509       7.265       6.910       6.557    
        6.108       5.681       5.455       5.293       5.127       4.995       4.889       4.771       4.547       4.319    
        4.178       4.064       3.933       3.755       3.554       3.313       2.938       2.581       2.344       2.108    
        1.864       1.599       1.340       1.039      0.7157      0.5260      0.3922      0.2658      0.1603       0.000    

 HEAD WILL BE SAVED ON UNIT   51 AT END OF TIME STEP  41, STRESS PERIOD    2

 DRAWDOWN WILL BE SAVED ON UNIT   52 AT END OF TIME STEP  41, STRESS PERIOD    2
1
  VOLUMETRIC BUDGET FOR ENTIRE MODEL AT END OF TIME STEP 41 IN STRESS PERIOD   2
  ------------------------------------------------------------------------------

     CUMULATIVE VOLUMES      L**3       RATES FOR THIS TIME STEP      L**3/T
     ------------------                 ------------------------

           IN:                                      IN:
           ---                                      ---
             STORAGE =       20404.0586               STORAGE =         489.8955
       CONSTANT HEAD =       15734.5605         CONSTANT HEAD =         381.8951
               WELLS =           0.0000                 WELLS =           0.0000

            TOTAL IN =       36138.6172              TOTAL IN =         871.7906

          OUT:                                     OUT:
          ----                                     ----
             STORAGE =       1.1143E-02               STORAGE =           0.0000
       CONSTANT HEAD =       15638.6064         CONSTANT HEAD =         371.7904
               WELLS =       20500.0000                 WELLS =         500.0000

           TOTAL OUT =       36138.6172             TOTAL OUT =         871.7904

            IN - OUT =           0.0000              IN - OUT =       1.8311E-04

 PERCENT DISCREPANCY =           0.00     PERCENT DISCREPANCY =           0.00






          TIME SUMMARY AT END OF TIME STEP  41 IN STRESS PERIOD    2
                    SECONDS     MINUTES      HOURS       DAYS        YEARS
                    -----------------------------------------------------------
   TIME STEP LENGTH  86400.      1440.0      24.000      1.0000     2.73785E-03
 STRESS PERIOD TIME 3.54240E+06  59040.      984.00      41.000     0.11225    
         TOTAL TIME 3.62880E+06  60480.      1008.0      42.000     0.11499    
1
 
 SOLVING FOR HEAD 

 OUTPUT CONTROL FOR STRESS PERIOD    2   TIME STEP  42
    SAVE HEAD FOR ALL LAYERS
    SAVE DRAWDOWN FOR ALL LAYERS
    SAVE BUDGET
    PRINT HEAD FOR ALL LAYERS
    PRINT BUDGET
 UBDSV1 SAVING "         STORAGE" ON UNIT  53 AT TIME STEP 42, STRESS PERIOD   2
 UBDSV2 SAVING "   CONSTANT HEAD" ON UNIT  53 AT TIME STEP 42, STRESS PERIOD   2
 UBDSV1 SAVING "FLOW RIGHT FACE " ON UNIT  53 AT TIME STEP 42, STRESS PERIOD   2
 UBDSV1 SAVING "FLOW FRONT FACE " ON UNIT  53 AT TIME STEP 42, STRESS PERIOD   2
1
              HEAD IN LAYER   1 AT END OF TIME STEP  42 IN STRESS PERIOD    2
  ---------------------------------------------------------------------------

            1           2           3           4           5           6           7           8           9          10
           11          12          13          14          15          16          17          18          19          20
           21          22          23          24          25          26          27          28          29          30
           31          32          33          34          35          36          37          38          39          40
           41          42          43          44          45          46          47          48          49          50
 ........................................................................................................................
   1    10.00       9.953       9.906       9.850       9.806       9.769       9.720       9.652       9.577       9.509    
        9.357       9.168       9.028       8.872       8.705       8.537       8.381       8.202       7.962       7.723    
        7.560       7.373       7.127       6.878       6.655       6.461       6.184       5.931       5.753       5.565    
        5.403       5.297       5.182       5.051       4.926       4.769       4.601       4.374       4.113       3.828    
        3.462       3.089       2.600       2.067       1.667       1.379       1.163      0.9174      0.5385       0.000    
   2    10.00       9.948       9.897       9.850       9.813       9.778       9.723       9.653       9.585       9.492    
        9.344       9.174       9.017       8.875       8.721       8.548       8.363       8.178       7.954       7.713    
        7.536       7.383       7.120       6.851       6.653       6.433       6.166       5.925       5.720       5.543    
        5.405       5.308       5.211       5.070       4.923       4.768       4.575       4.363       4.111       3.786    
        3.443       3.126       2.612       2.083       1.728       1.471       1.223      0.9475      0.5720       0.000    
   3    10.00       9.939       9.897       9.865       9.829       9.792       9.733       9.650       9.567       9.467    
        9.332       9.182       9.030       8.887       8.704       8.487       8.307       8.147       7.941       7.730    
        7.547       7.329       7.071       6.834       6.618       6.373       6.117       5.879       5.668       5.536    
        5.423       5.329       5.231       5.077       4.922       4.757       4.566       4.329       4.047       3.799    
        3.494       3.061       2.561       2.181       1.878       1.579       1.273      0.9603      0.5420       0.000    
   4    10.00       9.939       9.902       9.873       9.848       9.809       9.741       9.646       9.547       9.447    
        9.319       9.184       9.033       8.853       8.629       8.427       8.298       8.118       7.919       7.754    
        7.505       7.230       7.003       6.791       6.583       6.290       6.007       5.817       5.672       5.557    
        5.455       5.357       5.251       5.072       4.881       4.732       4.530       4.285       4.044       3.825    
        3.480       3.002       2.624       2.303       1.978       1.639       1.270      0.9041      0.4632       0.000    
   5    10.00       9.944       9.910       9.881       9.859       9.818       9.747       9.638       9.528       9.428    
        9.319       9.181       8.987       8.776       8.587       8.427       8.266       8.099       7.913       7.681    
        7.393       7.164       6.976       6.762       6.495       6.191       5.958       5.822       5.703       5.587    
        5.470       5.350       5.229       5.057       4.863       4.682       4.501       4.308       4.088       3.799    
        3.407       3.043       2.719       2.395       2.040       1.644       1.181      0.7615      0.3943       0.000    
   6    10.00       9.953       9.920       9.892       9.862       9.817       9.741       9.623       9.528       9.421    
        9.299       9.128       8.915       8.740       8.566       8.385       8.221       8.071       7.863       7.601    
        7.345       7.127       6.934       6.670       6.381       6.151       5.961       5.833       5.702       5.582    
        5.479       5.347       5.195       5.019       4.830       4.675       4.516       4.340       4.108       3.797    
        3.453       3.101       2.769       2.442       2.056       1.577       1.080      0.7162      0.3687       0.000    
   7    10.00       9.960       9.931       9.901       9.868       9.815       9.712       9.600       9.501       9.369    
        9.244       9.062       8.870       8.690       8.511       8.328       8.168       8.031       7.793       7.513    
        7.283       7.062       6.847       6.591       6.345       6.134       5.967       5.816       5.676       5.581    
        5.475       5.331       5.170       4.990       4.827       4.689       4.543       4.361       4.123       3.839    
        3.497       3.134       2.789       2.428       2.047       1.544       1.033      0.6822      0.3229       0.000    
   8    10.00       9.967       9.941       9.908       9.870       9.784       9.660       9.554       9.430       9.304    
        9.167       8.981       8.818       8.636       8.436       8.258       8.119       7.956       7.733       7.461    
        7.194       6.990       6.812       6.550       6.295       6.106       5.918       5.756       5.659       5.568    
        5.441       5.297       5.161       5.002       4.830       4.686       4.575       4.435       4.201       3.874    
        3.499       3.175       2.853       2.432       2.007       1.445      0.9571      0.6684      0.3093       0.000    
   9    10.00       9.974       9.945       9.907       9.844       9.732       9.600       9.476       9.367       9.238    
        9.076       8.911       8.749       8.575       8.369       8.202       8.072       7.881       7.661       7.385    
        7.153       6.951       6.701       6.434       6.218       6.050       5.861       5.723       5.628       5.525    
        5.409       5.279       5.150       5.011       4.864       4.725       4.610       4.486       4.243       3.888    
        3.543       3.254       2.914       2.507       1.878       1.244      0.9119      0.5653      0.2156       0.000    
  10    10.00       9.974       9.943       9.892       9.795       9.661       9.516       9.419       9.316       9.164    
        9.023       8.860       8.698       8.511       8.321       8.171       7.997       7.799       7.567       7.344    
        7.116       6.810       6.553       6.342       6.157       6.006       5.832       5.690       5.596       5.509    
        5.386       5.246       5.130       5.002       4.871       4.776       4.661       4.516       4.239       3.886    
        3.615       3.360       2.969       2.356       1.628       1.169      0.8279      0.5055      0.2521       0.000    
  11    10.00       9.974       9.934       9.854       9.746       9.596       9.467       9.386       9.264       9.135    
        8.999       8.828       8.636       8.435       8.275       8.114       7.953       7.740       7.515       7.295    
        6.974       6.679       6.472       6.281       6.102       5.935       5.771       5.658       5.579       5.493    
        5.354       5.222       5.125       5.010       4.902       4.796       4.665       4.508       4.247       3.964    
        3.678       3.346       2.920       2.244       1.562       1.099      0.7760      0.5886      0.3251       0.000    
  12    10.00       9.972       9.915       9.814       9.672       9.524       9.422       9.341       9.235       9.118    
        8.969       8.788       8.595       8.417       8.254       8.076       7.891       7.674       7.446       7.150    
        6.832       6.608       6.404       6.210       6.013       5.846       5.730       5.644       5.543       5.434    
        5.311       5.212       5.126       5.034       4.938       4.831       4.690       4.499       4.256       4.000    
        3.693       3.331       2.749       1.988       1.409       1.083      0.8618      0.6247      0.3561       0.000    
  13    10.00       9.963       9.875       9.736       9.589       9.462       9.380       9.309       9.218       9.106    
        8.950       8.762       8.584       8.441       8.253       8.035       7.818       7.583       7.330       7.041    
        6.763       6.520       6.299       6.098       5.910       5.787       5.710       5.593       5.464       5.366    
        5.286       5.207       5.130       5.051       4.961       4.866       4.738       4.518       4.269       3.966    
        3.613       3.156       2.481       1.865       1.443       1.164      0.9062      0.6264      0.3094       0.000    
  14    10.00       9.932       9.807       9.654       9.518       9.418       9.363       9.298       9.212       9.088    
        8.917       8.756       8.611       8.461       8.250       7.993       7.760       7.494       7.212       6.911    
        6.641       6.399       6.180       5.982       5.834       5.749       5.657       5.515       5.405       5.330    
        5.272       5.197       5.131       5.058       4.975       4.899       4.749       4.524       4.260       3.882    
        3.466       2.928       2.408       1.957       1.536       1.209      0.9223      0.6270      0.2792       0.000    
  15    10.00       9.874       9.735       9.599       9.489       9.413       9.352       9.291       9.206       9.091    
        8.940       8.784       8.641       8.432       8.187       7.941       7.680       7.405       7.069       6.747    
        6.496       6.261       6.055       5.902       5.789       5.698       5.588       5.455       5.364       5.309    
        5.244       5.183       5.131       5.062       4.984       4.902       4.744       4.530       4.197       3.789    
        3.358       2.873       2.450       1.985       1.630       1.281      0.9338      0.6210      0.2547       0.000    
  16    10.00       9.853       9.703       9.578       9.484       9.415       9.352       9.296       9.214       9.095    
        8.954       8.805       8.630       8.368       8.100       7.896       7.641       7.272       6.887       6.587    
        6.326       6.128       5.960       5.829       5.705       5.622       5.501       5.392       5.321       5.259    
        5.211       5.171       5.115       5.053       4.983       4.889       4.744       4.485       4.123       3.750    
        3.380       2.912       2.435       2.024       1.690       1.323      0.9309      0.5565      0.2094       0.000    
  17    10.00       9.834       9.683       9.583       9.499       9.429       9.368       9.304       9.215       9.105    
        8.973       8.787       8.549       8.268       8.042       7.849       7.540       7.126       6.733       6.442    
        6.231       6.009       5.822       5.685       5.582       5.479       5.373       5.303       5.244       5.207    
        5.187       5.149       5.092       5.029       4.958       4.857       4.686       4.461       4.166       3.775    
        3.350       2.856       2.415       2.052       1.709       1.333      0.9506      0.5797      0.2450       0.000    
  18    10.00       9.825       9.683       9.597       9.521       9.453       9.393       9.316       9.229       9.111    
        8.953       8.734       8.470       8.231       8.010       7.729       7.369       6.991       6.645       6.357    
        6.097       5.814       5.650       5.535       5.446       5.330       5.260       5.200       5.162       5.159    
        5.147       5.114       5.057       4.987       4.914       4.806       4.641       4.456       4.201       3.839    
        3.287       2.760       2.400       2.054       1.762       1.367      0.9450      0.5682      0.2447       0.000    
  19    10.00       9.832       9.714       9.625       9.545       9.477       9.406       9.335       9.255       9.118    
        8.933       8.699       8.438       8.173       7.881       7.576       7.242       6.877       6.528       6.223    
        5.921       5.671       5.540       5.450       5.324       5.221       5.162       5.108       5.096       5.094    
        5.093       5.069       5.004       4.938       4.876       4.791       4.634       4.432       4.173       3.748    
        3.193       2.745       2.385       2.045       1.718       1.310      0.9074      0.5646      0.2660       0.000    
  20    10.00       9.842       9.741       9.663       9.586       9.505       9.421       9.345       9.264       9.126    
        8.925       8.682       8.378       8.033       7.699       7.449       7.112       6.719       6.411       6.107    
        5.837       5.629       5.470       5.334       5.175       5.102       5.062       5.034       5.036       5.034    
        5.035       5.003       4.947       4.905       4.851       4.763       4.584       4.379       4.083       3.607    
        3.128       2.770       2.354       1.966       1.610       1.209      0.9100      0.5605      0.2485       0.000    
  21    10.00       9.865       9.774       9.696       9.611       9.534       9.442       9.359       9.271       9.116    
        8.900       8.604       8.226       7.822       7.509       7.280       6.963       6.674       6.384       6.055    
        5.798       5.568       5.370       5.113       4.980       4.943       4.886       4.920       4.952       4.949    
        4.944       4.913       4.893       4.867       4.820       4.698       4.520       4.340       3.911       3.415    
        3.059       2.673       2.249       1.888       1.511       1.160      0.8238      0.4938      0.2480       0.000    
  22    10.00       9.894       9.799       9.714       9.632       9.559       9.454       9.347       9.245       9.086    
        8.822       8.450       8.023       7.643       7.373       7.133       6.890       6.680       6.362       6.040    
        5.769       5.442       5.086       4.817       4.716       4.619       4.632       4.733       4.773       4.795    
        4.812       4.807       4.821       4.823       4.777       4.648       4.465       4.135       3.647       3.331    
        2.948       2.532       2.152       1.806       1.484       1.068      0.7148      0.4734      0.2661       0.000    
  23    10.00       9.895       9.804       9.727       9.641       9.545       9.426       9.329       9.240       9.039    
        8.716       8.316       7.925       7.593       7.316       7.113       6.883       6.608       6.304       6.046    
        5.670       5.191       4.810       4.534       4.131       4.132       4.348       4.470       4.559       4.644    
        4.682       4.712       4.743       4.761       4.716       4.584       4.315       3.933       3.534       3.147    
        2.782       2.439       2.074       1.800       1.393      0.9705      0.6952      0.4552      0.2363       0.000    
  24    10.00       9.918       9.815       9.714       9.614       9.504       9.397       9.315       9.214       8.978    
        8.610       8.232       7.908       7.618       7.354       7.088       6.806       6.556       6.314       6.012    
        5.562       5.087       4.633       3.803       2.915       3.435       3.934       4.226       4.388       4.522    
        4.593       4.638       4.679       4.681       4.632       4.463       4.163       3.846       3.406       2.993    
        2.708       2.378       2.033       1.682       1.246      0.9004      0.6688      0.4264      0.1881       0.000    
  25    10.00       9.911       9.791       9.668       9.551       9.451       9.370       9.287       9.163       8.917    
        8.531       8.179       7.930       7.661       7.355       7.078       6.815       6.596       6.372       5.984    
        5.469       5.000       4.274       2.924      9.8651E-02   2.827       3.615       4.075       4.316       4.456    
        4.538       4.592       4.626       4.615       4.552       4.366       4.046       3.677       3.319       2.968    
        2.642       2.285       1.892       1.522       1.109      0.8268      0.6660      0.4145      0.1536       0.000    
  26    10.00       9.888       9.735       9.596       9.502       9.421       9.341       9.239       9.092       8.788    
        8.428       8.181       7.943       7.674       7.388       7.123       6.875       6.659       6.378       5.965    
        5.513       4.996       4.361       3.632       2.962       3.319       3.788       4.112       4.309       4.437    
        4.514       4.569       4.585       4.560       4.472       4.252       3.899       3.602       3.313       2.935    
        2.596       2.192       1.742       1.346       1.008      0.8092      0.6300      0.3695      0.1572       0.000    
  27    10.00       9.864       9.700       9.570       9.491       9.385       9.279       9.150       8.953       8.663    
        8.408       8.190       7.947       7.685       7.404       7.194       7.024       6.734       6.379       5.959    
        5.574       5.201       4.692       4.214       3.836       3.897       4.077       4.236       4.360       4.450    
        4.530       4.571       4.569       4.520       4.402       4.152       3.872       3.611       3.277       2.922    
        2.571       2.084       1.569       1.197      0.9622      0.7960      0.5991      0.3906      0.1883       0.000    
  28    10.00       9.846       9.726       9.580       9.446       9.316       9.198       9.045       8.848       8.623    
        8.412       8.216       7.976       7.683       7.434       7.265       7.076       6.756       6.344       5.972    
        5.701       5.423       5.025       4.655       4.416       4.338       4.333       4.382       4.460       4.531    
        4.578       4.584       4.564       4.492       4.338       4.113       3.891       3.585       3.237       2.881    
        2.454       1.996       1.485       1.116      0.9516      0.7928      0.6176      0.4079      0.1891       0.000    
  29    10.00       9.851       9.701       9.547       9.386       9.260       9.126       8.956       8.789       8.610    
        8.422       8.228       7.993       7.745       7.533       7.334       7.082       6.725       6.349       6.061    
        5.831       5.589       5.264       4.935       4.741       4.634       4.568       4.564       4.599       4.618    
        4.616       4.602       4.561       4.463       4.290       4.099       3.894       3.610       3.225       2.775    
        2.385       1.898       1.389       1.100      0.9546      0.7984      0.6129      0.3985      0.1981       0.000    
  30    10.00       9.829       9.678       9.493       9.329       9.213       9.070       8.920       8.791       8.630    
        8.436       8.225       8.011       7.814       7.625       7.401       7.078       6.746       6.446       6.175    
        5.978       5.740       5.445       5.160       4.926       4.830       4.765       4.737       4.710       4.683    
        4.652       4.619       4.557       4.430       4.274       4.125       3.920       3.554       3.081       2.623    
        2.229       1.784       1.397       1.129      0.9764      0.8002      0.6021      0.4177      0.2049       0.000    
  31    10.00       9.807       9.632       9.454       9.306       9.186       9.050       8.917       8.789       8.631    
        8.439       8.226       8.041       7.877       7.698       7.445       7.127       6.840       6.606       6.367    
        6.159       5.891       5.600       5.361       5.122       4.965       4.898       4.833       4.784       4.732    
        4.689       4.632       4.546       4.424       4.275       4.109       3.787       3.379       2.988       2.542    
        2.171       1.727       1.351       1.158      0.9944      0.8286      0.6224      0.4182      0.1982       0.000    
  32    10.00       9.792       9.603       9.451       9.326       9.206       9.064       8.912       8.756       8.607    
        8.417       8.232       8.067       7.886       7.719       7.503       7.257       7.044       6.804       6.558    
        6.349       6.098       5.806       5.550       5.302       5.079       4.990       4.908       4.838       4.764    
        4.704       4.650       4.535       4.386       4.248       4.018       3.621       3.240       2.897       2.492    
        2.060       1.648       1.372       1.224       1.045      0.8358      0.6177      0.3972      0.1981       0.000    
  33    10.00       9.785       9.624       9.502       9.377       9.237       9.065       8.896       8.728       8.557    
        8.399       8.243       8.080       7.907       7.722       7.555       7.375       7.194       6.998       6.757    
        6.514       6.279       6.035       5.737       5.431       5.179       5.048       4.964       4.877       4.785    
        4.716       4.635       4.511       4.370       4.170       3.853       3.449       3.129       2.800       2.330    
        1.939       1.671       1.453       1.276       1.072      0.8521      0.5851      0.3495      0.1574       0.000    
  34    10.00       9.804       9.672       9.557       9.418       9.246       9.065       8.867       8.681       8.538    
        8.396       8.254       8.107       7.928       7.765       7.603       7.448       7.304       7.116       6.871    
        6.642       6.430       6.189       5.879       5.542       5.260       5.093       4.992       4.895       4.792    
        4.703       4.613       4.491       4.314       4.069       3.678       3.288       3.004       2.616       2.204    
        1.965       1.789       1.578       1.350       1.083      0.7727      0.4727      0.2798      0.1160       0.000    
  35    10.00       9.836       9.717       9.600       9.451       9.258       9.051       8.830       8.654       8.531    
        8.436       8.293       8.129       7.939       7.765       7.650       7.537       7.388       7.194       6.961    
        6.742       6.532       6.310       5.959       5.577       5.307       5.124       5.011       4.899       4.781    
        4.692       4.588       4.445       4.210       3.827       3.423       3.165       2.873       2.479       2.234    
        2.068       1.868       1.656       1.434       1.096      0.6570      0.3629      0.2385      0.1211       0.000    
  36    10.00       9.855       9.752       9.640       9.481       9.251       8.998       8.790       8.664       8.570    
        8.440       8.277       8.126       7.957       7.805       7.691       7.582       7.450       7.296       7.081    
        6.854       6.633       6.357       5.977       5.601       5.328       5.155       5.020       4.880       4.764    
        4.661       4.529       4.296       3.944       3.596       3.323       3.084       2.779       2.469       2.307    
        2.139       1.960       1.746       1.460      0.9990      0.5530      0.3408      0.2181      0.1120       0.000    
  37    10.00       9.870       9.790       9.669       9.457       9.205       8.982       8.820       8.716       8.602    
        8.434       8.259       8.128       7.983       7.841       7.732       7.631       7.508       7.346       7.158    
        6.972       6.730       6.382       6.022       5.662       5.353       5.142       4.972       4.842       4.722    
        4.595       4.398       4.048       3.732       3.493       3.259       3.014       2.776       2.557       2.377    
        2.215       2.014       1.771       1.396      0.9151      0.5330      0.3191      0.2028      0.1017       0.000    
  38    10.00       9.890       9.793       9.660       9.440       9.180       8.991       8.871       8.762       8.627    
        8.449       8.266       8.138       8.004       7.862       7.753       7.665       7.557       7.397       7.234    
        7.062       6.780       6.382       5.990       5.629       5.325       5.092       4.903       4.777       4.664    
        4.495       4.168       3.863       3.669       3.435       3.205       3.030       2.832       2.632       2.460    
        2.269       1.995       1.688       1.280      0.8035      0.5104      0.3590      0.2236      0.1004       0.000    
  39    10.00       9.888       9.778       9.639       9.426       9.191       9.020       8.913       8.780       8.630    
        8.485       8.301       8.154       8.027       7.890       7.773       7.674       7.568       7.438       7.290    
        7.087       6.781       6.364       5.923       5.551       5.265       5.000       4.804       4.710       4.599    
        4.331       4.000       3.817       3.597       3.380       3.219       3.076       2.896       2.702       2.541    
        2.265       1.878       1.517       1.077      0.7163      0.5527      0.4114      0.2679      0.1378       0.000    
  40    10.00       9.879       9.782       9.640       9.445       9.247       9.080       8.939       8.780       8.643    
        8.534       8.354       8.169       8.039       7.913       7.780       7.669       7.585       7.471       7.290    
        7.052       6.697       6.271       5.856       5.478       5.179       4.875       4.724       4.639       4.489    
        4.247       4.008       3.761       3.537       3.386       3.249       3.113       2.945       2.767       2.557    
        2.184       1.761       1.371       1.015      0.7683      0.5998      0.4591      0.3240      0.1591       0.000    
  41    10.00       9.895       9.818       9.680       9.478       9.272       9.112       8.985       8.830       8.666    
        8.536       8.370       8.198       8.076       7.929       7.770       7.676       7.584       7.432       7.231    
        6.983       6.634       6.206       5.802       5.425       5.023       4.745       4.666       4.572       4.461    
        4.273       3.985       3.739       3.564       3.415       3.294       3.145       2.985       2.802       2.473    
        2.036       1.625       1.286       1.025      0.8112      0.6549      0.5045      0.3564      0.1876       0.000    
  42    10.00       9.922       9.835       9.703       9.528       9.331       9.150       9.019       8.878       8.697    
        8.530       8.371       8.224       8.107       7.951       7.783       7.668       7.542       7.375       7.144    
        6.857       6.474       6.099       5.697       5.204       4.852       4.712       4.649       4.569       4.452    
        4.232       3.981       3.753       3.577       3.458       3.329       3.197       3.025       2.732       2.295    
        1.915       1.609       1.315       1.020      0.8214      0.6886      0.5443      0.3710      0.2058       0.000    
  43    10.00       9.938       9.845       9.708       9.536       9.371       9.211       9.064       8.888       8.699    
        8.546       8.385       8.240       8.131       7.984       7.793       7.639       7.494       7.266       6.972    
        6.692       6.323       5.978       5.515       5.053       4.825       4.716       4.643       4.569       4.445    
        4.236       4.008       3.791       3.619       3.506       3.379       3.206       2.960       2.531       2.146    
        1.909       1.638       1.329       1.022      0.8131      0.6902      0.5791      0.4011      0.1880       0.000    
  44    10.00       9.930       9.851       9.708       9.551       9.433       9.270       9.068       8.869       8.712    
        8.558       8.396       8.268       8.153       7.980       7.775       7.597       7.423       7.154       6.861    
        6.527       6.161       5.794       5.333       4.989       4.822       4.729       4.666       4.585       4.429    
        4.217       4.035       3.844       3.686       3.569       3.393       3.164       2.811       2.377       2.123    
        1.906       1.624       1.315       1.036      0.8228      0.6921      0.5794      0.3928      0.1731       0.000    
  45    10.00       9.916       9.821       9.705       9.591       9.438       9.265       9.072       8.874       8.715    
        8.555       8.409       8.296       8.163       7.973       7.752       7.553       7.356       7.065       6.722    
        6.339       5.952       5.559       5.222       4.986       4.845       4.755       4.689       4.585       4.458    
        4.275       4.068       3.898       3.735       3.568       3.382       3.132       2.756       2.380       2.084    
        1.837       1.572       1.284       1.034      0.8484      0.7400      0.5718      0.3404      0.1552       0.000    
  46    10.00       9.898       9.799       9.707       9.576       9.401       9.233       9.075       8.879       8.709    
        8.567       8.431       8.317       8.156       7.954       7.756       7.545       7.287       6.974       6.601    
        6.153       5.770       5.458       5.203       5.024       4.900       4.789       4.698       4.617       4.475    
        4.280       4.101       3.934       3.745       3.580       3.403       3.122       2.689       2.296       2.032    
        1.801       1.546       1.276       1.057      0.9133      0.7738      0.5184      0.2548      0.1108       0.000    
  47    10.00       9.892       9.791       9.663       9.511       9.367       9.223       9.051       8.872       8.721    
        8.590       8.469       8.306       8.132       7.950       7.758       7.524       7.225       6.932       6.480    
        5.995       5.698       5.430       5.231       5.064       4.942       4.831       4.721       4.626       4.479    
        4.275       4.099       3.929       3.751       3.609       3.395       3.004       2.616       2.288       2.008    
        1.805       1.565       1.325       1.114      0.9352      0.7098      0.4265      0.2229      9.2832E-02   0.000    
  48    10.00       9.879       9.758       9.622       9.484       9.356       9.210       9.053       8.887       8.738    
        8.605       8.462       8.284       8.104       7.926       7.735       7.511       7.229       6.865       6.417    
        6.000       5.695       5.434       5.252       5.116       4.966       4.852       4.761       4.643       4.444    
        4.244       4.071       3.915       3.784       3.597       3.314       2.943       2.594       2.283       2.037    
        1.818       1.590       1.374       1.134      0.8672      0.5766      0.3645      0.2162      9.7659E-02   0.000    
  49    10.00       9.869       9.737       9.603       9.490       9.357       9.202       9.048       8.914       8.759    
        8.600       8.419       8.244       8.093       7.889       7.704       7.517       7.202       6.843       6.487    
        6.046       5.707       5.447       5.287       5.128       4.966       4.878       4.790       4.601       4.361    
        4.190       4.052       3.939       3.769       3.551       3.299       2.928       2.580       2.336       2.074    
        1.817       1.608       1.376       1.095      0.7677      0.5141      0.3645      0.2353      0.1207       0.000    
  50    10.00       9.873       9.741       9.605       9.482       9.352       9.214       9.062       8.921       8.782    
        8.586       8.398       8.237       8.035       7.828       7.686       7.509       7.265       6.909       6.557    
        6.107       5.680       5.455       5.292       5.126       4.994       4.888       4.770       4.546       4.318    
        4.177       4.063       3.932       3.755       3.553       3.313       2.938       2.581       2.344       2.108    
        1.864       1.599       1.339       1.039      0.7156      0.5260      0.3922      0.2658      0.1603       0.000    

 HEAD WILL BE SAVED ON UNIT   51 AT END OF TIME STEP  42, STRESS PERIOD    2

 DRAWDOWN WILL BE SAVED ON UNIT   52 AT END OF TIME STEP  42, STRESS PERIOD    2
1
  VOLUMETRIC BUDGET FOR ENTIRE MODEL AT END OF TIME STEP 42 IN STRESS PERIOD   2
  ------------------------------------------------------------------------------

     CUMULATIVE VOLUMES      L**3       RATES FOR THIS TIME STEP      L**3/T
     ------------------                 ------------------------

           IN:                                      IN:
           ---                                      ---
             STORAGE =       20893.1660               STORAGE =         489.1071
       CONSTANT HEAD =       16117.1611         CONSTANT HEAD =         382.6003
               WELLS =           0.0000                 WELLS =           0.0000

            TOTAL IN =       37010.3281              TOTAL IN =         871.7074

          OUT:                                     OUT:
          ----                                     ----
             STORAGE =       1.1143E-02               STORAGE =           0.0000
       CONSTANT HEAD =       16010.3135         CONSTANT HEAD =         371.7074
               WELLS =       21000.0000                 WELLS =         500.0000

           TOTAL OUT =       37010.3242             TOTAL OUT =         871.7074

            IN - OUT =       3.9063E-03              IN - OUT =           0.0000

 PERCENT DISCREPANCY =           0.00     PERCENT DISCREPANCY =           0.00






          TIME SUMMARY AT END OF TIME STEP  42 IN STRESS PERIOD    2
                    SECONDS     MINUTES      HOURS       DAYS        YEARS
                    -----------------------------------------------------------
   TIME STEP LENGTH  86400.      1440.0      24.000      1.0000     2.73785E-03
 STRESS PERIOD TIME 3.62880E+06  60480.      1008.0      42.000     0.11499    
         TOTAL TIME 3.71520E+06  61920.      1032.0      43.000     0.11773    
1
 
 SOLVING FOR HEAD 

 OUTPUT CONTROL FOR STRESS PERIOD    2   TIME STEP  43
    SAVE HEAD FOR ALL LAYERS
    SAVE DRAWDOWN FOR ALL LAYERS
    SAVE BUDGET
    PRINT HEAD FOR ALL LAYERS
    PRINT BUDGET
 UBDSV1 SAVING "         STORAGE" ON UNIT  53 AT TIME STEP 43, STRESS PERIOD   2
 UBDSV2 SAVING "   CONSTANT HEAD" ON UNIT  53 AT TIME STEP 43, STRESS PERIOD   2
 UBDSV1 SAVING "FLOW RIGHT FACE " ON UNIT  53 AT TIME STEP 43, STRESS PERIOD   2
 UBDSV1 SAVING "FLOW FRONT FACE " ON UNIT  53 AT TIME STEP 43, STRESS PERIOD   2
1
              HEAD IN LAYER   1 AT END OF TIME STEP  43 IN STRESS PERIOD    2
  ---------------------------------------------------------------------------

            1           2           3           4           5           6           7           8           9          10
           11          12          13          14          15          16          17          18          19          20
           21          22          23          24          25          26          27          28          29          30
           31          32          33          34          35          36          37          38          39          40
           41          42          43          44          45          46          47          48          49          50
 ........................................................................................................................
   1    10.00       9.953       9.906       9.850       9.806       9.769       9.720       9.651       9.577       9.508    
        9.357       9.167       9.027       8.871       8.704       8.536       8.380       8.200       7.960       7.721    
        7.558       7.371       7.125       6.876       6.652       6.458       6.181       5.928       5.750       5.562    
        5.400       5.294       5.179       5.048       4.923       4.767       4.599       4.371       4.111       3.827    
        3.460       3.088       2.599       2.067       1.667       1.378       1.163      0.9173      0.5384       0.000    
   2    10.00       9.948       9.897       9.850       9.813       9.777       9.722       9.653       9.584       9.492    
        9.343       9.174       9.016       8.874       8.720       8.547       8.361       8.176       7.953       7.712    
        7.534       7.380       7.118       6.848       6.650       6.430       6.163       5.922       5.716       5.539    
        5.402       5.305       5.207       5.067       4.920       4.765       4.572       4.361       4.109       3.784    
        3.442       3.124       2.612       2.083       1.728       1.471       1.222      0.9474      0.5719       0.000    
   3    10.00       9.939       9.897       9.864       9.829       9.792       9.733       9.650       9.567       9.466    
        9.332       9.181       9.029       8.886       8.703       8.486       8.305       8.145       7.940       7.728    
        7.545       7.327       7.069       6.831       6.615       6.369       6.114       5.876       5.664       5.532    
        5.419       5.325       5.228       5.073       4.919       4.754       4.563       4.327       4.045       3.797    
        3.493       3.060       2.560       2.180       1.878       1.579       1.273      0.9602      0.5419       0.000    
   4    10.00       9.939       9.902       9.873       9.848       9.809       9.741       9.645       9.547       9.447    
        9.319       9.184       9.032       8.852       8.627       8.426       8.296       8.116       7.918       7.752    
        7.503       7.227       7.000       6.788       6.580       6.286       6.003       5.813       5.668       5.553    
        5.451       5.353       5.247       5.068       4.878       4.729       4.527       4.282       4.042       3.823    
        3.478       3.001       2.623       2.303       1.978       1.638       1.270      0.9040      0.4632       0.000    
   5    10.00       9.944       9.910       9.881       9.859       9.818       9.747       9.638       9.528       9.428    
        9.319       9.180       8.986       8.775       8.585       8.426       8.265       8.097       7.911       7.678    
        7.390       7.161       6.973       6.758       6.491       6.187       5.954       5.818       5.698       5.583    
        5.466       5.345       5.225       5.054       4.859       4.679       4.498       4.305       4.085       3.797    
        3.405       3.042       2.718       2.394       2.039       1.643       1.181      0.7613      0.3942       0.000    
   6    10.00       9.953       9.920       9.892       9.861       9.817       9.740       9.623       9.527       9.420    
        9.298       9.127       8.914       8.739       8.564       8.383       8.219       8.069       7.861       7.598    
        7.341       7.123       6.930       6.666       6.377       6.146       5.956       5.828       5.697       5.577    
        5.474       5.342       5.191       5.014       4.825       4.671       4.513       4.337       4.106       3.795    
        3.451       3.099       2.768       2.441       2.055       1.577       1.080      0.7160      0.3686       0.000    
   7    10.00       9.960       9.930       9.901       9.868       9.814       9.712       9.599       9.500       9.368    
        9.243       9.061       8.868       8.688       8.509       8.326       8.166       8.028       7.790       7.510    
        7.279       7.057       6.842       6.586       6.340       6.128       5.962       5.811       5.670       5.576    
        5.470       5.325       5.164       4.985       4.822       4.684       4.538       4.357       4.119       3.836    
        3.494       3.132       2.788       2.426       2.046       1.544       1.033      0.6821      0.3228       0.000    
   8    10.00       9.967       9.940       9.908       9.870       9.784       9.660       9.553       9.429       9.303    
        9.166       8.980       8.816       8.634       8.433       8.255       8.116       7.953       7.729       7.457    
        7.189       6.985       6.807       6.544       6.288       6.100       5.911       5.749       5.652       5.561    
        5.435       5.291       5.155       4.996       4.825       4.681       4.570       4.431       4.197       3.871    
        3.496       3.173       2.851       2.431       2.006       1.445      0.9568      0.6682      0.3092       0.000    
   9    10.00       9.974       9.944       9.907       9.844       9.731       9.599       9.475       9.366       9.237    
        9.075       8.909       8.747       8.572       8.366       8.198       8.069       7.877       7.656       7.380    
        7.147       6.945       6.694       6.427       6.210       6.042       5.853       5.715       5.620       5.517    
        5.402       5.272       5.143       5.005       4.857       4.719       4.605       4.481       4.239       3.885    
        3.540       3.252       2.912       2.506       1.878       1.244      0.9117      0.5651      0.2156       0.000    
  10    10.00       9.974       9.943       9.892       9.795       9.661       9.515       9.418       9.315       9.163    
        9.021       8.858       8.696       8.508       8.318       8.167       7.993       7.795       7.562       7.338    
        7.110       6.803       6.545       6.333       6.149       5.997       5.823       5.681       5.587       5.500    
        5.378       5.238       5.123       4.995       4.864       4.769       4.655       4.511       4.234       3.883    
        3.612       3.358       2.968       2.355       1.627       1.168      0.8276      0.5053      0.2521       0.000    
  11    10.00       9.974       9.933       9.854       9.745       9.595       9.466       9.385       9.263       9.133    
        8.997       8.826       8.633       8.431       8.272       8.110       7.948       7.735       7.509       7.289    
        6.966       6.670       6.463       6.272       6.093       5.926       5.761       5.649       5.570       5.484    
        5.345       5.214       5.117       5.002       4.895       4.789       4.659       4.503       4.242       3.960    
        3.674       3.343       2.918       2.243       1.562       1.099      0.7757      0.5884      0.3250       0.000    
  12    10.00       9.972       9.915       9.813       9.671       9.523       9.420       9.340       9.233       9.116    
        8.967       8.786       8.592       8.413       8.250       8.072       7.885       7.668       7.439       7.142    
        6.824       6.598       6.394       6.199       6.003       5.836       5.719       5.634       5.533       5.424    
        5.301       5.202       5.116       5.025       4.930       4.823       4.683       4.492       4.251       3.996    
        3.690       3.329       2.747       1.987       1.408       1.082      0.8615      0.6245      0.3560       0.000    
  13    10.00       9.963       9.875       9.736       9.588       9.460       9.378       9.307       9.217       9.104    
        8.947       8.759       8.581       8.437       8.249       8.030       7.812       7.576       7.322       7.032    
        6.753       6.509       6.288       6.087       5.898       5.776       5.699       5.582       5.453       5.355    
        5.276       5.197       5.120       5.042       4.952       4.858       4.730       4.512       4.263       3.962    
        3.609       3.154       2.479       1.864       1.442       1.164      0.9059      0.6262      0.3093       0.000    
  14    10.00       9.932       9.807       9.654       9.517       9.417       9.361       9.296       9.210       9.086    
        8.914       8.753       8.607       8.457       8.245       7.987       7.753       7.487       7.203       6.902    
        6.631       6.387       6.168       5.970       5.822       5.737       5.645       5.503       5.393       5.318    
        5.260       5.187       5.121       5.048       4.966       4.890       4.741       4.517       4.254       3.877    
        3.462       2.926       2.406       1.956       1.535       1.209      0.9220      0.6268      0.2792       0.000    
  15    10.00       9.874       9.734       9.598       9.488       9.411       9.350       9.289       9.204       9.089    
        8.937       8.780       8.637       8.428       8.181       7.934       7.673       7.396       7.059       6.736    
        6.484       6.249       6.042       5.889       5.776       5.686       5.575       5.442       5.351       5.297    
        5.232       5.171       5.120       5.052       4.974       4.892       4.735       4.522       4.191       3.785    
        3.354       2.870       2.449       1.984       1.629       1.281      0.9335      0.6208      0.2546       0.000    
  16    10.00       9.853       9.702       9.577       9.483       9.413       9.350       9.294       9.211       9.093    
        8.951       8.801       8.625       8.362       8.093       7.888       7.632       7.262       6.876       6.575    
        6.313       6.115       5.947       5.815       5.691       5.609       5.488       5.379       5.308       5.246    
        5.199       5.159       5.104       5.042       4.973       4.879       4.735       4.477       4.116       3.745    
        3.376       2.909       2.434       2.023       1.689       1.322      0.9306      0.5563      0.2094       0.000    
  17    10.00       9.834       9.682       9.582       9.498       9.427       9.366       9.302       9.213       9.103    
        8.970       8.783       8.544       8.261       8.035       7.841       7.530       7.115       6.721       6.429    
        6.217       5.995       5.808       5.670       5.567       5.465       5.358       5.289       5.230       5.194    
        5.174       5.136       5.080       5.017       4.947       4.847       4.677       4.453       4.159       3.769    
        3.346       2.853       2.413       2.050       1.708       1.332      0.9503      0.5796      0.2450       0.000    
  18    10.00       9.824       9.682       9.595       9.520       9.452       9.391       9.314       9.227       9.108    
        8.950       8.730       8.464       8.224       8.002       7.720       7.358       6.979       6.631       6.343    
        6.083       5.798       5.635       5.520       5.430       5.315       5.245       5.185       5.147       5.145    
        5.134       5.101       5.044       4.975       4.902       4.795       4.631       4.448       4.193       3.833    
        3.283       2.757       2.398       2.052       1.761       1.366      0.9448      0.5681      0.2447       0.000    
  19    10.00       9.832       9.713       9.624       9.544       9.476       9.404       9.333       9.252       9.116    
        8.930       8.695       8.432       8.165       7.872       7.566       7.231       6.864       6.513       6.208    
        5.905       5.655       5.524       5.434       5.308       5.205       5.146       5.093       5.081       5.079    
        5.078       5.055       4.990       4.925       4.864       4.780       4.624       4.423       4.166       3.743    
        3.189       2.742       2.384       2.044       1.717       1.310      0.9072      0.5645      0.2660       0.000    
  20    10.00       9.841       9.740       9.662       9.585       9.504       9.419       9.343       9.261       9.123    
        8.921       8.677       8.371       8.025       7.689       7.438       7.100       6.705       6.396       6.092    
        5.821       5.613       5.454       5.317       5.158       5.086       5.046       5.018       5.020       5.019    
        5.019       4.989       4.933       4.892       4.838       4.752       4.574       4.370       4.076       3.602    
        3.124       2.767       2.353       1.965       1.609       1.208      0.9098      0.5604      0.2485       0.000    
  21    10.00       9.864       9.774       9.695       9.610       9.533       9.440       9.357       9.269       9.113    
        8.896       8.599       8.218       7.812       7.498       7.268       6.949       6.659       6.369       6.039    
        5.781       5.552       5.353       5.096       4.963       4.926       4.869       4.904       4.935       4.933    
        4.928       4.897       4.879       4.853       4.806       4.687       4.509       4.331       3.904       3.411    
        3.056       2.671       2.248       1.887       1.510       1.160      0.8236      0.4937      0.2480       0.000    
  22    10.00       9.894       9.798       9.713       9.631       9.558       9.452       9.345       9.243       9.082    
        8.817       8.444       8.014       7.632       7.360       7.120       6.876       6.666       6.346       6.023    
        5.752       5.425       5.069       4.799       4.699       4.602       4.614       4.716       4.756       4.778    
        4.795       4.790       4.805       4.808       4.763       4.636       4.455       4.127       3.642       3.327    
        2.945       2.530       2.151       1.805       1.484       1.067      0.7146      0.4733      0.2661       0.000    
  23    10.00       9.895       9.803       9.726       9.640       9.543       9.424       9.327       9.237       9.035    
        8.710       8.308       7.916       7.582       7.304       7.099       6.869       6.594       6.288       6.030    
        5.653       5.174       4.792       4.516       4.113       4.114       4.329       4.452       4.541       4.626    
        4.664       4.694       4.726       4.745       4.701       4.571       4.305       3.926       3.529       3.143    
        2.780       2.437       2.073       1.799       1.393      0.9702      0.6951      0.4551      0.2363       0.000    
  24    10.00       9.918       9.814       9.713       9.613       9.502       9.395       9.312       9.212       8.974    
        8.604       8.224       7.898       7.607       7.342       7.074       6.792       6.541       6.298       5.995    
        5.545       5.069       4.615       3.784       2.896       3.416       3.915       4.207       4.369       4.503    
        4.575       4.620       4.661       4.664       4.617       4.450       4.153       3.838       3.401       2.990    
        2.706       2.377       2.032       1.682       1.246      0.9001      0.6686      0.4263      0.1881       0.000    
  25    10.00       9.911       9.791       9.667       9.550       9.450       9.368       9.284       9.160       8.913    
        8.525       8.170       7.921       7.650       7.343       7.065       6.800       6.581       6.356       5.967    
        5.451       4.982       4.256       2.904      7.7901E-02   2.807       3.595       4.056       4.297       4.437    
        4.520       4.574       4.608       4.598       4.536       4.353       4.036       3.670       3.314       2.964    
        2.639       2.283       1.891       1.522       1.108      0.8266      0.6659      0.4144      0.1536       0.000    
  26    10.00       9.888       9.734       9.595       9.501       9.419       9.338       9.236       9.089       8.783    
        8.421       8.173       7.934       7.664       7.376       7.110       6.861       6.645       6.362       5.949    
        5.495       4.978       4.343       3.613       2.942       3.299       3.769       4.093       4.290       4.418    
        4.496       4.550       4.567       4.543       4.456       4.239       3.890       3.594       3.308       2.932    
        2.594       2.191       1.741       1.345       1.008      0.8090      0.6298      0.3694      0.1572       0.000    
  27    10.00       9.864       9.699       9.569       9.490       9.383       9.277       9.147       8.949       8.658    
        8.402       8.182       7.938       7.674       7.392       7.181       7.011       6.720       6.364       5.943    
        5.557       5.183       4.674       4.195       3.817       3.877       4.058       4.216       4.341       4.432    
        4.511       4.553       4.551       4.503       4.387       4.140       3.863       3.603       3.271       2.918    
        2.568       2.082       1.568       1.197      0.9619      0.7958      0.5989      0.3905      0.1883       0.000    
  28    10.00       9.845       9.725       9.579       9.444       9.313       9.195       9.041       8.843       8.617    
        8.406       8.209       7.967       7.672       7.422       7.253       7.063       6.742       6.328       5.956    
        5.684       5.406       5.007       4.636       4.397       4.319       4.314       4.363       4.441       4.513    
        4.560       4.567       4.547       4.476       4.324       4.102       3.881       3.577       3.232       2.877    
        2.451       1.994       1.484       1.115      0.9513      0.7926      0.6175      0.4078      0.1891       0.000    
  29    10.00       9.851       9.700       9.546       9.384       9.258       9.123       8.952       8.785       8.605    
        8.416       8.220       7.985       7.736       7.522       7.323       7.069       6.711       6.334       6.045    
        5.815       5.572       5.246       4.917       4.722       4.616       4.549       4.546       4.580       4.600    
        4.598       4.585       4.544       4.448       4.277       4.087       3.884       3.602       3.220       2.771    
        2.382       1.896       1.388       1.099      0.9543      0.7982      0.6127      0.3983      0.1981       0.000    
  30    10.00       9.829       9.677       9.491       9.326       9.211       9.067       8.916       8.787       8.625    
        8.430       8.219       8.003       7.805       7.615       7.390       7.066       6.733       6.432       6.159    
        5.963       5.723       5.428       5.143       4.908       4.812       4.747       4.719       4.692       4.666    
        4.635       4.603       4.541       4.416       4.261       4.113       3.910       3.547       3.076       2.620    
        2.227       1.783       1.396       1.129      0.9760      0.7999      0.6019      0.4175      0.2048       0.000    
  31    10.00       9.806       9.631       9.453       9.304       9.183       9.047       8.913       8.784       8.626    
        8.433       8.219       8.033       7.869       7.689       7.435       7.115       6.827       6.593       6.352    
        6.144       5.875       5.584       5.344       5.105       4.948       4.880       4.816       4.767       4.715    
        4.673       4.616       4.531       4.410       4.262       4.097       3.778       3.373       2.983       2.539    
        2.169       1.726       1.350       1.157      0.9940      0.8283      0.6222      0.4180      0.1981       0.000    
  32    10.00       9.791       9.602       9.450       9.324       9.204       9.061       8.909       8.752       8.602    
        8.411       8.226       8.060       7.878       7.710       7.494       7.247       7.032       6.792       6.544    
        6.335       6.083       5.791       5.534       5.285       5.062       4.973       4.891       4.822       4.748    
        4.689       4.635       4.521       4.373       4.236       4.007       3.613       3.234       2.893       2.489    
        2.058       1.647       1.371       1.223       1.045      0.8354      0.6175      0.3971      0.1981       0.000    
  33    10.00       9.784       9.623       9.500       9.375       9.234       9.062       8.893       8.724       8.553    
        8.393       8.237       8.073       7.900       7.714       7.546       7.366       7.183       6.986       6.745    
        6.501       6.265       6.021       5.722       5.415       5.163       5.032       4.949       4.862       4.770    
        4.701       4.621       4.498       4.358       4.159       3.844       3.442       3.124       2.797       2.328    
        1.938       1.670       1.452       1.275       1.072      0.8518      0.5848      0.3494      0.1574       0.000    
  34    10.00       9.803       9.671       9.556       9.416       9.244       9.062       8.864       8.677       8.533    
        8.391       8.249       8.101       7.921       7.757       7.595       7.439       7.294       7.106       6.860    
        6.629       6.417       6.175       5.864       5.527       5.245       5.078       4.977       4.881       4.778    
        4.689       4.600       4.479       4.303       4.059       3.671       3.282       3.000       2.613       2.202    
        1.963       1.787       1.577       1.350       1.082      0.7724      0.4725      0.2797      0.1159       0.000    
  35    10.00       9.836       9.716       9.599       9.450       9.256       9.048       8.827       8.650       8.526    
        8.431       8.288       8.123       7.932       7.757       7.642       7.528       7.379       7.184       6.950    
        6.730       6.520       6.297       5.946       5.563       5.293       5.110       4.997       4.886       4.768    
        4.679       4.576       4.433       4.199       3.819       3.417       3.161       2.870       2.477       2.232    
        2.066       1.866       1.655       1.434       1.095      0.6567      0.3628      0.2385      0.1210       0.000    
  36    10.00       9.855       9.751       9.639       9.480       9.249       8.995       8.787       8.660       8.565    
        8.436       8.272       8.120       7.951       7.798       7.684       7.575       7.442       7.287       7.071    
        6.843       6.622       6.345       5.965       5.588       5.315       5.142       5.007       4.867       4.752    
        4.649       4.518       4.286       3.936       3.590       3.318       3.080       2.776       2.467       2.306    
        2.138       1.959       1.745       1.459      0.9986      0.5528      0.3407      0.2180      0.1120       0.000    
  37    10.00       9.870       9.790       9.668       9.456       9.203       8.979       8.817       8.712       8.598    
        8.429       8.254       8.123       7.977       7.834       7.725       7.624       7.501       7.338       7.149    
        6.963       6.720       6.371       6.010       5.650       5.341       5.130       4.961       4.831       4.711    
        4.585       4.388       4.041       3.726       3.488       3.255       3.011       2.774       2.555       2.375    
        2.214       2.013       1.770       1.395      0.9148      0.5328      0.3190      0.2027      0.1017       0.000    
  38    10.00       9.889       9.792       9.659       9.439       9.178       8.988       8.868       8.759       8.624    
        8.445       8.262       8.133       7.998       7.856       7.746       7.658       7.550       7.389       7.226    
        7.054       6.771       6.373       5.981       5.620       5.315       5.083       4.894       4.768       4.655    
        4.487       4.161       3.858       3.665       3.431       3.202       3.028       2.830       2.630       2.458    
        2.268       1.994       1.687       1.280      0.8032      0.5102      0.3589      0.2236      0.1003       0.000    
  39    10.00       9.888       9.777       9.638       9.425       9.189       9.018       8.911       8.777       8.627    
        8.482       8.297       8.149       8.022       7.884       7.767       7.668       7.561       7.431       7.283    
        7.079       6.774       6.356       5.915       5.543       5.258       4.993       4.798       4.703       4.592    
        4.325       3.995       3.812       3.593       3.377       3.216       3.074       2.894       2.701       2.540    
        2.264       1.877       1.516       1.076      0.7161      0.5526      0.4113      0.2678      0.1378       0.000    
  40    10.00       9.879       9.782       9.640       9.444       9.245       9.078       8.936       8.777       8.640    
        8.531       8.350       8.164       8.034       7.907       7.774       7.664       7.580       7.465       7.284    
        7.046       6.691       6.265       5.850       5.472       5.173       4.870       4.718       4.634       4.484    
        4.243       4.004       3.758       3.534       3.383       3.246       3.111       2.943       2.766       2.555    
        2.182       1.760       1.370       1.015      0.7681      0.5997      0.4590      0.3239      0.1590       0.000    
  41    10.00       9.895       9.817       9.679       9.477       9.270       9.111       8.983       8.827       8.663    
        8.533       8.367       8.194       8.072       7.924       7.765       7.670       7.578       7.427       7.226    
        6.978       6.629       6.201       5.798       5.420       5.019       4.741       4.661       4.568       4.457    
        4.270       3.982       3.736       3.561       3.413       3.291       3.143       2.983       2.800       2.471    
        2.035       1.625       1.286       1.024      0.8110      0.6547      0.5044      0.3563      0.1876       0.000    
  42    10.00       9.921       9.835       9.702       9.528       9.330       9.149       9.018       8.876       8.695    
        8.527       8.368       8.221       8.103       7.947       7.779       7.664       7.537       7.371       7.140    
        6.854       6.470       6.096       5.694       5.201       4.848       4.709       4.645       4.566       4.449    
        4.229       3.978       3.751       3.574       3.456       3.326       3.195       3.023       2.730       2.294    
        1.914       1.609       1.315       1.019      0.8212      0.6884      0.5442      0.3709      0.2058       0.000    
  43    10.00       9.938       9.845       9.708       9.535       9.371       9.210       9.062       8.886       8.697    
        8.543       8.383       8.237       8.128       7.981       7.790       7.635       7.490       7.263       6.969    
        6.689       6.320       5.976       5.513       5.051       4.822       4.714       4.641       4.566       4.443    
        4.234       4.006       3.789       3.617       3.504       3.376       3.205       2.958       2.530       2.145    
        1.908       1.638       1.328       1.022      0.8129      0.6901      0.5790      0.4010      0.1879       0.000    
  44    10.00       9.930       9.851       9.708       9.551       9.432       9.269       9.067       8.867       8.710    
        8.556       8.394       8.266       8.151       7.978       7.772       7.594       7.421       7.152       6.859    
        6.525       6.159       5.792       5.331       4.988       4.820       4.727       4.664       4.583       4.427    
        4.215       4.033       3.842       3.684       3.567       3.391       3.163       2.810       2.376       2.122    
        1.906       1.624       1.315       1.036      0.8226      0.6919      0.5793      0.3928      0.1731       0.000    
  45    10.00       9.916       9.821       9.705       9.590       9.437       9.265       9.071       8.873       8.714    
        8.554       8.407       8.294       8.161       7.971       7.750       7.551       7.354       7.064       6.720    
        6.337       5.951       5.558       5.221       4.985       4.843       4.753       4.687       4.583       4.456    
        4.273       4.067       3.896       3.733       3.566       3.380       3.130       2.755       2.380       2.083    
        1.837       1.572       1.284       1.034      0.8483      0.7399      0.5717      0.3403      0.1551       0.000    
  46    10.00       9.898       9.799       9.707       9.576       9.400       9.233       9.074       8.878       8.709    
        8.566       8.430       8.316       8.155       7.952       7.755       7.543       7.286       6.972       6.600    
        6.152       5.769       5.457       5.202       5.023       4.898       4.787       4.697       4.615       4.473    
        4.279       4.100       3.932       3.744       3.579       3.402       3.121       2.688       2.295       2.032    
        1.800       1.546       1.276       1.057      0.9132      0.7737      0.5184      0.2548      0.1108       0.000    
  47    10.00       9.892       9.791       9.663       9.511       9.366       9.222       9.051       8.872       8.720    
        8.590       8.468       8.305       8.131       7.949       7.757       7.523       7.224       6.931       6.480    
        5.994       5.697       5.429       5.229       5.063       4.941       4.829       4.719       4.624       4.478    
        4.274       4.097       3.927       3.750       3.608       3.394       3.003       2.616       2.288       2.007    
        1.805       1.565       1.325       1.114      0.9351      0.7098      0.4265      0.2229      9.2825E-02   0.000    
  48    10.00       9.879       9.758       9.622       9.484       9.356       9.210       9.052       8.887       8.738    
        8.605       8.461       8.283       8.104       7.925       7.734       7.510       7.228       6.865       6.417    
        5.999       5.694       5.433       5.250       5.115       4.964       4.851       4.759       4.642       4.442    
        4.243       4.070       3.914       3.783       3.596       3.313       2.942       2.594       2.283       2.037    
        1.818       1.590       1.373       1.134      0.8671      0.5766      0.3644      0.2161      9.7653E-02   0.000    
  49    10.00       9.868       9.737       9.603       9.490       9.357       9.202       9.048       8.914       8.759    
        8.599       8.418       8.243       8.093       7.889       7.703       7.517       7.202       6.842       6.486    
        6.046       5.706       5.446       5.286       5.127       4.964       4.876       4.789       4.599       4.359    
        4.189       4.051       3.938       3.768       3.550       3.298       2.927       2.580       2.336       2.074    
        1.817       1.607       1.376       1.095      0.7676      0.5140      0.3645      0.2353      0.1207       0.000    
  50    10.00       9.873       9.741       9.605       9.482       9.351       9.213       9.061       8.920       8.782    
        8.586       8.397       8.237       8.035       7.828       7.686       7.509       7.264       6.909       6.556    
        6.107       5.679       5.454       5.291       5.125       4.993       4.887       4.768       4.544       4.317    
        4.176       4.062       3.931       3.754       3.553       3.312       2.937       2.581       2.344       2.108    
        1.863       1.599       1.339       1.038      0.7156      0.5260      0.3922      0.2658      0.1603       0.000    

 HEAD WILL BE SAVED ON UNIT   51 AT END OF TIME STEP  43, STRESS PERIOD    2

 DRAWDOWN WILL BE SAVED ON UNIT   52 AT END OF TIME STEP  43, STRESS PERIOD    2
1
  VOLUMETRIC BUDGET FOR ENTIRE MODEL AT END OF TIME STEP 43 IN STRESS PERIOD   2
  ------------------------------------------------------------------------------

     CUMULATIVE VOLUMES      L**3       RATES FOR THIS TIME STEP      L**3/T
     ------------------                 ------------------------

           IN:                                      IN:
           ---                                      ---
             STORAGE =       21381.4570               STORAGE =         488.2915
       CONSTANT HEAD =       16500.4883         CONSTANT HEAD =         383.3267
               WELLS =           0.0000                 WELLS =           0.0000

            TOTAL IN =       37881.9453              TOTAL IN =         871.6182

          OUT:                                     OUT:
          ----                                     ----
             STORAGE =       1.1143E-02               STORAGE =           0.0000
       CONSTANT HEAD =       16381.9316         CONSTANT HEAD =         371.6178
               WELLS =       21500.0000                 WELLS =         500.0000

           TOTAL OUT =       37881.9414             TOTAL OUT =         871.6178

            IN - OUT =       3.9063E-03              IN - OUT =       3.6621E-04

 PERCENT DISCREPANCY =           0.00     PERCENT DISCREPANCY =           0.00






          TIME SUMMARY AT END OF TIME STEP  43 IN STRESS PERIOD    2
                    SECONDS     MINUTES      HOURS       DAYS        YEARS
                    -----------------------------------------------------------
   TIME STEP LENGTH  86400.      1440.0      24.000      1.0000     2.73785E-03
 STRESS PERIOD TIME 3.71520E+06  61920.      1032.0      43.000     0.11773    
         TOTAL TIME 3.80160E+06  63360.      1056.0      44.000     0.12047    
1
 
 SOLVING FOR HEAD 

 OUTPUT CONTROL FOR STRESS PERIOD    2   TIME STEP  44
    SAVE HEAD FOR ALL LAYERS
    SAVE DRAWDOWN FOR ALL LAYERS
    SAVE BUDGET
    PRINT HEAD FOR ALL LAYERS
    PRINT BUDGET
 UBDSV1 SAVING "         STORAGE" ON UNIT  53 AT TIME STEP 44, STRESS PERIOD   2
 UBDSV2 SAVING "   CONSTANT HEAD" ON UNIT  53 AT TIME STEP 44, STRESS PERIOD   2
 UBDSV1 SAVING "FLOW RIGHT FACE " ON UNIT  53 AT TIME STEP 44, STRESS PERIOD   2
 UBDSV1 SAVING "FLOW FRONT FACE " ON UNIT  53 AT TIME STEP 44, STRESS PERIOD   2
1
              HEAD IN LAYER   1 AT END OF TIME STEP  44 IN STRESS PERIOD    2
  ---------------------------------------------------------------------------

            1           2           3           4           5           6           7           8           9          10
           11          12          13          14          15          16          17          18          19          20
           21          22          23          24          25          26          27          28          29          30
           31          32          33          34          35          36          37          38          39          40
           41          42          43          44          45          46          47          48          49          50
 ........................................................................................................................
   1    10.00       9.953       9.906       9.850       9.806       9.769       9.720       9.651       9.577       9.508    
        9.356       9.166       9.026       8.870       8.703       8.535       8.379       8.199       7.958       7.719    
        7.556       7.369       7.123       6.873       6.650       6.455       6.178       5.925       5.746       5.558    
        5.396       5.291       5.176       5.045       4.920       4.764       4.596       4.369       4.109       3.825    
        3.459       3.087       2.599       2.066       1.666       1.378       1.163      0.9171      0.5383       0.000    
   2    10.00       9.948       9.897       9.850       9.813       9.777       9.722       9.652       9.584       9.491    
        9.343       9.173       9.015       8.873       8.719       8.545       8.360       8.175       7.951       7.710    
        7.532       7.378       7.116       6.846       6.647       6.427       6.160       5.918       5.713       5.535    
        5.398       5.301       5.204       5.064       4.917       4.763       4.570       4.358       4.107       3.783    
        3.440       3.123       2.611       2.082       1.727       1.470       1.222      0.9472      0.5717       0.000    
   3    10.00       9.939       9.897       9.864       9.829       9.792       9.733       9.650       9.566       9.466    
        9.331       9.181       9.029       8.885       8.702       8.485       8.304       8.144       7.938       7.726    
        7.543       7.325       7.066       6.828       6.612       6.366       6.110       5.872       5.660       5.528    
        5.415       5.321       5.224       5.070       4.916       4.751       4.561       4.324       4.043       3.795    
        3.491       3.059       2.559       2.179       1.877       1.578       1.273      0.9600      0.5418       0.000    
   4    10.00       9.939       9.902       9.873       9.848       9.809       9.741       9.645       9.547       9.446    
        9.318       9.183       9.031       8.850       8.626       8.424       8.295       8.115       7.916       7.750    
        7.501       7.224       6.997       6.785       6.576       6.282       5.999       5.808       5.663       5.549    
        5.447       5.349       5.243       5.065       4.874       4.726       4.524       4.280       4.039       3.821    
        3.476       3.000       2.622       2.302       1.977       1.638       1.270      0.9038      0.4631       0.000    
   5    10.00       9.944       9.910       9.881       9.859       9.818       9.746       9.637       9.528       9.427    
        9.318       9.179       8.985       8.774       8.584       8.424       8.263       8.095       7.908       7.676    
        7.387       7.158       6.969       6.755       6.487       6.183       5.949       5.813       5.694       5.578    
        5.461       5.341       5.221       5.050       4.855       4.675       4.495       4.302       4.082       3.795    
        3.404       3.040       2.716       2.393       2.038       1.643       1.181      0.7612      0.3941       0.000    
   6    10.00       9.953       9.920       9.891       9.861       9.816       9.740       9.623       9.527       9.419    
        9.298       9.126       8.913       8.737       8.562       8.381       8.217       8.067       7.858       7.595    
        7.338       7.120       6.926       6.662       6.372       6.141       5.951       5.823       5.692       5.572    
        5.469       5.337       5.186       5.010       4.821       4.667       4.509       4.334       4.103       3.792    
        3.449       3.098       2.767       2.440       2.055       1.576       1.079      0.7159      0.3685       0.000    
   7    10.00       9.960       9.930       9.901       9.868       9.814       9.712       9.599       9.500       9.367    
        9.242       9.060       8.867       8.687       8.507       8.323       8.163       8.026       7.787       7.506    
        7.274       7.053       6.838       6.581       6.334       6.123       5.956       5.805       5.664       5.570    
        5.464       5.320       5.159       4.980       4.817       4.680       4.534       4.353       4.116       3.833    
        3.492       3.130       2.786       2.425       2.045       1.543       1.032      0.6819      0.3227       0.000    
   8    10.00       9.967       9.940       9.908       9.870       9.784       9.659       9.552       9.428       9.302    
        9.164       8.978       8.814       8.631       8.431       8.252       8.113       7.949       7.725       7.452    
        7.184       6.980       6.801       6.538       6.282       6.093       5.905       5.742       5.645       5.554    
        5.428       5.285       5.148       4.990       4.819       4.676       4.565       4.427       4.194       3.868    
        3.494       3.171       2.850       2.429       2.005       1.444      0.9565      0.6680      0.3091       0.000    
   9    10.00       9.974       9.944       9.907       9.844       9.731       9.599       9.474       9.365       9.235    
        9.073       8.907       8.745       8.570       8.363       8.195       8.065       7.873       7.652       7.375    
        7.141       6.939       6.688       6.419       6.203       6.035       5.845       5.707       5.613       5.509    
        5.394       5.265       5.136       4.998       4.851       4.713       4.599       4.476       4.235       3.882    
        3.537       3.250       2.910       2.505       1.877       1.244      0.9114      0.5650      0.2155       0.000    
  10    10.00       9.974       9.943       9.892       9.795       9.660       9.514       9.417       9.314       9.161    
        9.019       8.855       8.693       8.505       8.314       8.163       7.989       7.790       7.556       7.332    
        7.104       6.796       6.537       6.325       6.140       5.989       5.814       5.672       5.579       5.492    
        5.370       5.230       5.115       4.987       4.857       4.763       4.649       4.505       4.229       3.879    
        3.609       3.355       2.966       2.354       1.627       1.168      0.8273      0.5052      0.2520       0.000    
  11    10.00       9.974       9.933       9.854       9.745       9.594       9.465       9.384       9.262       9.131    
        8.995       8.823       8.630       8.428       8.268       8.105       7.943       7.729       7.503       7.282    
        6.959       6.662       6.454       6.263       6.084       5.916       5.751       5.639       5.560       5.475    
        5.336       5.205       5.109       4.994       4.887       4.782       4.653       4.497       4.237       3.956    
        3.671       3.340       2.916       2.241       1.561       1.098      0.7755      0.5882      0.3249       0.000    
  12    10.00       9.972       9.915       9.813       9.671       9.522       9.419       9.338       9.231       9.114    
        8.965       8.783       8.589       8.409       8.246       8.067       7.880       7.662       7.432       7.134    
        6.815       6.589       6.384       6.189       5.992       5.825       5.709       5.623       5.523       5.414    
        5.291       5.193       5.107       5.016       4.922       4.816       4.676       4.486       4.246       3.991    
        3.686       3.326       2.745       1.986       1.408       1.082      0.8612      0.6243      0.3559       0.000    
  13    10.00       9.963       9.875       9.735       9.587       9.459       9.377       9.305       9.215       9.101    
        8.945       8.756       8.577       8.433       8.244       8.024       7.806       7.570       7.314       7.023    
        6.743       6.499       6.278       6.076       5.887       5.764       5.688       5.571       5.442       5.345    
        5.265       5.187       5.110       5.033       4.943       4.849       4.723       4.505       4.258       3.957    
        3.606       3.151       2.478       1.863       1.441       1.163      0.9055      0.6260      0.3092       0.000    
  14    10.00       9.932       9.806       9.653       9.516       9.415       9.360       9.295       9.208       9.084    
        8.911       8.750       8.603       8.453       8.241       7.982       7.747       7.479       7.195       6.892    
        6.620       6.376       6.157       5.958       5.809       5.725       5.633       5.492       5.382       5.307    
        5.249       5.176       5.110       5.038       4.956       4.881       4.733       4.510       4.248       3.873    
        3.459       2.923       2.404       1.955       1.534       1.208      0.9216      0.6266      0.2791       0.000    
  15    10.00       9.873       9.734       9.597       9.487       9.410       9.349       9.287       9.202       9.086    
        8.934       8.777       8.633       8.423       8.175       7.928       7.665       7.388       7.049       6.726    
        6.473       6.237       6.030       5.876       5.764       5.673       5.562       5.430       5.339       5.285    
        5.220       5.160       5.109       5.041       4.964       4.883       4.727       4.514       4.185       3.780    
        3.350       2.868       2.447       1.982       1.628       1.280      0.9331      0.6206      0.2545       0.000    
  16    10.00       9.852       9.701       9.576       9.482       9.411       9.349       9.292       9.209       9.090    
        8.948       8.797       8.621       8.357       8.087       7.881       7.624       7.252       6.865       6.563    
        6.301       6.102       5.934       5.802       5.678       5.596       5.474       5.366       5.295       5.234    
        5.186       5.147       5.092       5.031       4.962       4.869       4.725       4.469       4.110       3.740    
        3.372       2.906       2.432       2.022       1.688       1.322      0.9303      0.5561      0.2093       0.000    
  17    10.00       9.833       9.681       9.581       9.497       9.426       9.364       9.300       9.211       9.100    
        8.967       8.779       8.539       8.255       8.027       7.833       7.520       7.104       6.708       6.416    
        6.203       5.981       5.794       5.656       5.553       5.450       5.344       5.275       5.217       5.181    
        5.161       5.124       5.068       5.006       4.936       4.836       4.667       4.444       4.152       3.764    
        3.342       2.851       2.412       2.049       1.707       1.332      0.9500      0.5794      0.2449       0.000    
  18    10.00       9.824       9.681       9.594       9.518       9.450       9.389       9.312       9.224       9.105    
        8.946       8.725       8.458       8.217       7.994       7.710       7.347       6.967       6.618       6.329    
        6.068       5.783       5.620       5.505       5.415       5.299       5.230       5.170       5.133       5.131    
        5.120       5.088       5.032       4.963       4.891       4.784       4.621       4.439       4.186       3.827    
        3.279       2.755       2.396       2.051       1.760       1.365      0.9445      0.5679      0.2446       0.000    
  19    10.00       9.831       9.712       9.623       9.543       9.474       9.402       9.331       9.250       9.113    
        8.926       8.690       8.426       8.158       7.863       7.556       7.219       6.851       6.499       6.193    
        5.890       5.639       5.508       5.418       5.292       5.189       5.130       5.077       5.066       5.064    
        5.064       5.041       4.977       4.913       4.852       4.768       4.614       4.414       4.158       3.737    
        3.185       2.740       2.382       2.043       1.716       1.309      0.9070      0.5644      0.2659       0.000    
  20    10.00       9.841       9.739       9.661       9.583       9.502       9.418       9.341       9.259       9.120    
        8.917       8.672       8.365       8.017       7.679       7.427       7.087       6.691       6.381       6.076    
        5.805       5.597       5.438       5.301       5.142       5.069       5.030       5.002       5.004       5.003    
        5.004       4.974       4.919       4.879       4.826       4.740       4.563       4.361       4.068       3.596    
        3.121       2.765       2.351       1.964       1.609       1.208      0.9095      0.5603      0.2484       0.000    
  21    10.00       9.864       9.773       9.694       9.609       9.531       9.438       9.355       9.266       9.110    
        8.892       8.593       8.211       7.803       7.487       7.256       6.936       6.645       6.354       6.024    
        5.765       5.535       5.336       5.079       4.946       4.909       4.852       4.887       4.919       4.916    
        4.912       4.881       4.864       4.839       4.793       4.675       4.499       4.322       3.897       3.407    
        3.052       2.668       2.246       1.887       1.510       1.159      0.8234      0.4936      0.2480       0.000    
  22    10.00       9.893       9.798       9.712       9.630       9.557       9.451       9.343       9.240       9.079    
        8.813       8.437       8.005       7.621       7.349       7.107       6.862       6.651       6.331       6.007    
        5.736       5.408       5.052       4.782       4.682       4.584       4.597       4.699       4.739       4.761    
        4.778       4.774       4.789       4.793       4.749       4.624       4.444       4.119       3.636       3.322    
        2.942       2.529       2.150       1.804       1.483       1.067      0.7145      0.4733      0.2660       0.000    
  23    10.00       9.895       9.803       9.725       9.639       9.542       9.422       9.325       9.235       9.031    
        8.705       8.301       7.906       7.571       7.291       7.086       6.855       6.579       6.272       6.014    
        5.637       5.156       4.774       4.498       4.095       4.096       4.312       4.434       4.523       4.608    
        4.647       4.677       4.709       4.729       4.686       4.559       4.295       3.918       3.524       3.139    
        2.777       2.435       2.071       1.798       1.392      0.9699      0.6949      0.4550      0.2362       0.000    
  24    10.00       9.918       9.814       9.712       9.612       9.501       9.393       9.310       9.209       8.970    
        8.598       8.216       7.889       7.596       7.330       7.061       6.778       6.526       6.282       5.979    
        5.528       5.051       4.597       3.766       2.877       3.397       3.896       4.188       4.351       4.485    
        4.557       4.602       4.644       4.648       4.601       4.437       4.143       3.831       3.396       2.987    
        2.703       2.375       2.030       1.681       1.246      0.8999      0.6685      0.4262      0.1881       0.000    
  25    10.00       9.910       9.790       9.666       9.548       9.448       9.365       9.282       9.157       8.909    
        8.518       8.162       7.911       7.639       7.330       7.052       6.786       6.566       6.341       5.951    
        5.434       4.964       4.237       2.885      5.7528E-02   2.788       3.576       4.037       4.278       4.418    
        4.501       4.555       4.591       4.581       4.520       4.340       4.026       3.663       3.309       2.961    
        2.637       2.281       1.890       1.521       1.108      0.8263      0.6657      0.4143      0.1536       0.000    
  26    10.00       9.888       9.733       9.593       9.499       9.417       9.336       9.233       9.086       8.779    
        8.415       8.165       7.925       7.653       7.364       7.097       6.847       6.630       6.347       5.932    
        5.478       4.960       4.324       3.594       2.923       3.280       3.750       4.074       4.271       4.399    
        4.477       4.532       4.550       4.526       4.441       4.227       3.880       3.587       3.302       2.928    
        2.591       2.189       1.740       1.344       1.008      0.8087      0.6296      0.3693      0.1572       0.000    
  27    10.00       9.863       9.698       9.568       9.488       9.381       9.274       9.144       8.945       8.653    
        8.395       8.174       7.929       7.664       7.381       7.169       6.998       6.706       6.349       5.926    
        5.540       5.166       4.656       4.177       3.798       3.858       4.039       4.197       4.323       4.413    
        4.493       4.535       4.534       4.487       4.372       4.128       3.853       3.596       3.265       2.914    
        2.565       2.080       1.567       1.196      0.9615      0.7955      0.5988      0.3904      0.1882       0.000    
  28    10.00       9.845       9.724       9.578       9.442       9.311       9.192       9.038       8.839       8.612    
        8.399       8.201       7.958       7.662       7.411       7.241       7.051       6.728       6.313       5.940    
        5.668       5.389       4.990       4.618       4.379       4.301       4.296       4.344       4.423       4.495    
        4.542       4.549       4.530       4.460       4.310       4.090       3.871       3.569       3.226       2.873    
        2.448       1.992       1.483       1.115      0.9509      0.7923      0.6172      0.4077      0.1890       0.000    
  29    10.00       9.850       9.700       9.544       9.382       9.255       9.120       8.949       8.781       8.600    
        8.410       8.213       7.976       7.726       7.512       7.311       7.057       6.697       6.319       6.030    
        5.799       5.555       5.229       4.899       4.704       4.598       4.531       4.527       4.562       4.582    
        4.581       4.568       4.528       4.432       4.263       4.076       3.874       3.594       3.214       2.767    
        2.379       1.895       1.387       1.099      0.9539      0.7979      0.6125      0.3982      0.1980       0.000    
  30    10.00       9.828       9.676       9.490       9.324       9.208       9.064       8.912       8.782       8.620    
        8.425       8.212       7.995       7.796       7.605       7.379       7.054       6.719       6.418       6.144    
        5.947       5.707       5.411       5.125       4.890       4.794       4.730       4.701       4.675       4.649    
        4.619       4.587       4.525       4.401       4.248       4.101       3.900       3.539       3.071       2.617    
        2.225       1.781       1.395       1.128      0.9756      0.7996      0.6017      0.4174      0.2047       0.000    
  31    10.00       9.806       9.630       9.451       9.302       9.181       9.044       8.910       8.780       8.621    
        8.428       8.212       8.026       7.860       7.680       7.425       7.104       6.815       6.579       6.338    
        6.129       5.859       5.567       5.327       5.087       4.930       4.863       4.799       4.751       4.699    
        4.657       4.601       4.516       4.396       4.250       4.086       3.768       3.366       2.978       2.536    
        2.167       1.725       1.350       1.157      0.9935      0.8279      0.6220      0.4179      0.1980       0.000    
  32    10.00       9.790       9.601       9.448       9.322       9.201       9.058       8.905       8.748       8.597    
        8.406       8.219       8.053       7.870       7.702       7.484       7.236       7.021       6.779       6.531    
        6.321       6.069       5.775       5.518       5.269       5.046       4.957       4.875       4.806       4.732    
        4.673       4.620       4.507       4.360       4.224       3.997       3.605       3.228       2.889       2.486    
        2.056       1.646       1.371       1.222       1.044      0.8351      0.6172      0.3970      0.1980       0.000    
  33    10.00       9.784       9.622       9.499       9.373       9.232       9.060       8.889       8.720       8.548    
        8.388       8.231       8.066       7.892       7.706       7.537       7.356       7.173       6.975       6.733    
        6.488       6.252       6.006       5.707       5.400       5.148       5.017       4.933       4.846       4.755    
        4.687       4.607       4.484       4.345       4.147       3.835       3.435       3.119       2.793       2.326    
        1.936       1.669       1.451       1.275       1.071      0.8514      0.5846      0.3492      0.1573       0.000    
  34    10.00       9.803       9.670       9.554       9.415       9.242       9.060       8.860       8.673       8.529    
        8.386       8.243       8.094       7.914       7.749       7.587       7.430       7.285       7.096       6.849    
        6.617       6.404       6.161       5.850       5.512       5.230       5.063       4.963       4.867       4.764    
        4.675       4.587       4.466       4.291       4.049       3.663       3.277       2.996       2.610       2.200    
        1.962       1.786       1.576       1.349       1.082      0.7721      0.4723      0.2796      0.1159       0.000    
  35    10.00       9.835       9.716       9.598       9.448       9.254       9.045       8.823       8.646       8.522    
        8.426       8.282       8.117       7.926       7.750       7.634       7.520       7.370       7.174       6.940    
        6.719       6.508       6.284       5.933       5.549       5.279       5.097       4.983       4.872       4.755    
        4.666       4.564       4.421       4.189       3.811       3.411       3.156       2.866       2.475       2.230    
        2.065       1.865       1.654       1.433       1.094      0.6564      0.3627      0.2384      0.1210       0.000    
  36    10.00       9.855       9.751       9.638       9.478       9.247       8.992       8.783       8.656       8.561    
        8.431       8.266       8.114       7.945       7.791       7.676       7.567       7.433       7.279       7.061    
        6.833       6.611       6.333       5.952       5.575       5.302       5.129       4.995       4.855       4.740    
        4.637       4.507       4.276       3.928       3.584       3.313       3.077       2.773       2.465       2.304    
        2.136       1.957       1.744       1.459      0.9981      0.5526      0.3406      0.2179      0.1120       0.000    
  37    10.00       9.870       9.789       9.667       9.455       9.201       8.976       8.814       8.709       8.594    
        8.425       8.249       8.117       7.971       7.828       7.718       7.617       7.493       7.330       7.140    
        6.953       6.710       6.361       5.999       5.639       5.330       5.119       4.950       4.820       4.700    
        4.574       4.379       4.034       3.720       3.483       3.251       3.008       2.772       2.553       2.374    
        2.212       2.011       1.769       1.394      0.9144      0.5326      0.3189      0.2026      0.1016       0.000    
  38    10.00       9.889       9.792       9.658       9.438       9.176       8.986       8.865       8.756       8.620    
        8.441       8.257       8.127       7.992       7.850       7.740       7.651       7.543       7.382       7.218    
        7.045       6.763       6.364       5.971       5.610       5.306       5.073       4.885       4.759       4.646    
        4.478       4.154       3.852       3.660       3.427       3.199       3.025       2.828       2.628       2.456    
        2.266       1.993       1.686       1.279      0.8029      0.5101      0.3587      0.2235      0.1003       0.000    
  39    10.00       9.888       9.777       9.638       9.424       9.187       9.015       8.908       8.774       8.623    
        8.478       8.292       8.144       8.016       7.879       7.761       7.661       7.555       7.425       7.276    
        7.072       6.766       6.349       5.907       5.535       5.250       4.985       4.791       4.696       4.585    
        4.319       3.990       3.808       3.589       3.374       3.213       3.071       2.891       2.699       2.538    
        2.263       1.876       1.515       1.076      0.7158      0.5524      0.4112      0.2677      0.1377       0.000    
  40    10.00       9.879       9.781       9.639       9.443       9.244       9.076       8.934       8.775       8.637    
        8.527       8.346       8.160       8.029       7.902       7.769       7.658       7.574       7.459       7.278    
        7.040       6.685       6.259       5.844       5.466       5.167       4.865       4.713       4.629       4.479    
        4.239       4.000       3.754       3.531       3.381       3.244       3.109       2.941       2.764       2.553    
        2.181       1.759       1.369       1.014      0.7678      0.5995      0.4589      0.3238      0.1590       0.000    
  41    10.00       9.895       9.817       9.678       9.476       9.269       9.109       8.981       8.825       8.660    
        8.530       8.363       8.190       8.067       7.919       7.760       7.665       7.573       7.422       7.221    
        6.973       6.625       6.197       5.793       5.416       5.014       4.737       4.657       4.564       4.454    
        4.266       3.979       3.734       3.558       3.410       3.289       3.141       2.981       2.798       2.470    
        2.034       1.624       1.285       1.024      0.8107      0.6545      0.5042      0.3562      0.1875       0.000    
  42    10.00       9.921       9.835       9.702       9.527       9.329       9.147       9.016       8.874       8.692    
        8.524       8.365       8.217       8.100       7.943       7.775       7.659       7.533       7.367       7.136    
        6.850       6.467       6.093       5.691       5.198       4.845       4.705       4.642       4.563       4.445    
        4.225       3.975       3.748       3.572       3.453       3.324       3.193       3.021       2.729       2.293    
        1.913       1.608       1.314       1.019      0.8210      0.6883      0.5441      0.3708      0.2057       0.000    
  43    10.00       9.938       9.845       9.708       9.535       9.370       9.209       9.061       8.885       8.695    
        8.541       8.380       8.234       8.125       7.977       7.786       7.632       7.487       7.260       6.966    
        6.686       6.318       5.973       5.511       5.048       4.820       4.711       4.638       4.563       4.440    
        4.231       4.004       3.786       3.615       3.502       3.374       3.203       2.957       2.529       2.144    
        1.907       1.637       1.328       1.022      0.8127      0.6899      0.5788      0.4010      0.1879       0.000    
  44    10.00       9.930       9.851       9.708       9.550       9.431       9.268       9.066       8.866       8.709    
        8.554       8.392       8.264       8.148       7.975       7.770       7.591       7.418       7.150       6.857    
        6.523       6.157       5.791       5.330       4.986       4.817       4.724       4.662       4.580       4.424    
        4.213       4.031       3.840       3.682       3.565       3.390       3.161       2.809       2.375       2.122    
        1.905       1.623       1.315       1.036      0.8225      0.6918      0.5792      0.3927      0.1730       0.000    
  45    10.00       9.916       9.820       9.705       9.590       9.437       9.264       9.071       8.872       8.713    
        8.553       8.406       8.293       8.160       7.969       7.748       7.549       7.352       7.062       6.719    
        6.336       5.950       5.556       5.219       4.983       4.841       4.751       4.685       4.581       4.454    
        4.271       4.065       3.894       3.731       3.565       3.379       3.129       2.754       2.379       2.083    
        1.837       1.571       1.284       1.034      0.8481      0.7398      0.5717      0.3403      0.1551       0.000    
  46    10.00       9.898       9.799       9.707       9.576       9.400       9.232       9.074       8.878       8.708    
        8.565       8.429       8.315       8.154       7.951       7.753       7.542       7.285       6.971       6.599    
        6.151       5.768       5.455       5.201       5.021       4.896       4.785       4.695       4.613       4.471    
        4.277       4.098       3.931       3.743       3.578       3.401       3.120       2.688       2.295       2.031    
        1.800       1.546       1.276       1.057      0.9130      0.7736      0.5183      0.2548      0.1108       0.000    
  47    10.00       9.892       9.791       9.663       9.511       9.366       9.222       9.050       8.871       8.720    
        8.589       8.467       8.305       8.130       7.948       7.756       7.522       7.223       6.931       6.479    
        5.994       5.696       5.428       5.228       5.062       4.939       4.827       4.718       4.623       4.476    
        4.273       4.096       3.926       3.749       3.607       3.393       3.003       2.615       2.287       2.007    
        1.805       1.565       1.325       1.113      0.9350      0.7097      0.4264      0.2229      9.2816E-02   0.000    
  48    10.00       9.879       9.758       9.622       9.483       9.355       9.209       9.052       8.886       8.737    
        8.604       8.460       8.282       8.103       7.924       7.733       7.510       7.228       6.864       6.416    
        5.998       5.693       5.432       5.249       5.114       4.963       4.849       4.758       4.640       4.441    
        4.241       4.069       3.913       3.782       3.595       3.313       2.942       2.594       2.283       2.036    
        1.818       1.590       1.373       1.134      0.8670      0.5765      0.3644      0.2161      9.7646E-02   0.000    
  49    10.00       9.868       9.737       9.603       9.490       9.357       9.202       9.047       8.913       8.758    
        8.599       8.418       8.242       8.092       7.888       7.702       7.516       7.201       6.842       6.486    
        6.045       5.705       5.445       5.285       5.126       4.963       4.875       4.787       4.598       4.358    
        4.188       4.050       3.937       3.767       3.549       3.298       2.927       2.579       2.336       2.074    
        1.817       1.607       1.376       1.095      0.7676      0.5140      0.3645      0.2352      0.1207       0.000    
  50    10.00       9.873       9.741       9.605       9.482       9.351       9.213       9.061       8.920       8.782    
        8.585       8.397       8.236       8.034       7.827       7.685       7.508       7.264       6.908       6.555    
        6.106       5.678       5.453       5.290       5.124       4.991       4.886       4.767       4.543       4.316    
        4.175       4.061       3.930       3.753       3.552       3.312       2.937       2.581       2.344       2.108    
        1.863       1.599       1.339       1.038      0.7156      0.5260      0.3922      0.2658      0.1603       0.000    

 HEAD WILL BE SAVED ON UNIT   51 AT END OF TIME STEP  44, STRESS PERIOD    2

 DRAWDOWN WILL BE SAVED ON UNIT   52 AT END OF TIME STEP  44, STRESS PERIOD    2
1
  VOLUMETRIC BUDGET FOR ENTIRE MODEL AT END OF TIME STEP 44 IN STRESS PERIOD   2
  ------------------------------------------------------------------------------

     CUMULATIVE VOLUMES      L**3       RATES FOR THIS TIME STEP      L**3/T
     ------------------                 ------------------------

           IN:                                      IN:
           ---                                      ---
             STORAGE =       21868.9043               STORAGE =         487.4476
       CONSTANT HEAD =       16884.5625         CONSTANT HEAD =         384.0733
               WELLS =           0.0000                 WELLS =           0.0000

            TOTAL IN =       38753.4688              TOTAL IN =         871.5209

          OUT:                                     OUT:
          ----                                     ----
             STORAGE =       1.1143E-02               STORAGE =           0.0000
       CONSTANT HEAD =       16753.4531         CONSTANT HEAD =         371.5215
               WELLS =       22000.0000                 WELLS =         500.0000

           TOTAL OUT =       38753.4648             TOTAL OUT =         871.5215

            IN - OUT =       3.9063E-03              IN - OUT =      -6.1035E-04

 PERCENT DISCREPANCY =           0.00     PERCENT DISCREPANCY =           0.00






          TIME SUMMARY AT END OF TIME STEP  44 IN STRESS PERIOD    2
                    SECONDS     MINUTES      HOURS       DAYS        YEARS
                    -----------------------------------------------------------
   TIME STEP LENGTH  86400.      1440.0      24.000      1.0000     2.73785E-03
 STRESS PERIOD TIME 3.80160E+06  63360.      1056.0      44.000     0.12047    
         TOTAL TIME 3.88800E+06  64800.      1080.0      45.000     0.12320    
1
 
 SOLVING FOR HEAD 

 OUTPUT CONTROL FOR STRESS PERIOD    2   TIME STEP  45
    SAVE HEAD FOR ALL LAYERS
    SAVE DRAWDOWN FOR ALL LAYERS
    SAVE BUDGET
    PRINT HEAD FOR ALL LAYERS
    PRINT BUDGET
 UBDSV1 SAVING "         STORAGE" ON UNIT  53 AT TIME STEP 45, STRESS PERIOD   2
 UBDSV2 SAVING "   CONSTANT HEAD" ON UNIT  53 AT TIME STEP 45, STRESS PERIOD   2
 UBDSV1 SAVING "FLOW RIGHT FACE " ON UNIT  53 AT TIME STEP 45, STRESS PERIOD   2
 UBDSV1 SAVING "FLOW FRONT FACE " ON UNIT  53 AT TIME STEP 45, STRESS PERIOD   2
1
              HEAD IN LAYER   1 AT END OF TIME STEP  45 IN STRESS PERIOD    2
  ---------------------------------------------------------------------------

            1           2           3           4           5           6           7           8           9          10
           11          12          13          14          15          16          17          18          19          20
           21          22          23          24          25          26          27          28          29          30
           31          32          33          34          35          36          37          38          39          40
           41          42          43          44          45          46          47          48          49          50
 ........................................................................................................................
   1    10.00       9.953       9.905       9.850       9.806       9.769       9.719       9.651       9.576       9.507    
        9.356       9.166       9.025       8.869       8.702       8.534       8.377       8.197       7.957       7.717    
        7.554       7.367       7.120       6.870       6.647       6.452       6.175       5.922       5.743       5.555    
        5.393       5.287       5.172       5.042       4.917       4.761       4.593       4.367       4.107       3.823    
        3.458       3.086       2.598       2.066       1.666       1.378       1.163      0.9169      0.5382       0.000    
   2    10.00       9.947       9.897       9.850       9.813       9.777       9.722       9.652       9.584       9.491    
        9.342       9.172       9.015       8.872       8.718       8.544       8.358       8.173       7.949       7.708    
        7.529       7.376       7.113       6.843       6.644       6.424       6.156       5.915       5.709       5.532    
        5.395       5.297       5.200       5.061       4.914       4.760       4.567       4.356       4.105       3.781    
        3.439       3.122       2.610       2.081       1.727       1.470       1.222      0.9469      0.5716       0.000    
   3    10.00       9.939       9.897       9.864       9.829       9.791       9.732       9.649       9.566       9.465    
        9.331       9.180       9.028       8.884       8.701       8.483       8.302       8.142       7.936       7.724    
        7.541       7.322       7.063       6.825       6.609       6.363       6.107       5.868       5.656       5.524    
        5.411       5.317       5.220       5.067       4.912       4.748       4.558       4.322       4.041       3.793    
        3.490       3.058       2.558       2.179       1.877       1.578       1.273      0.9597      0.5417       0.000    
   4    10.00       9.939       9.902       9.872       9.848       9.808       9.740       9.645       9.546       9.446    
        9.317       9.182       9.030       8.849       8.625       8.423       8.293       8.113       7.913       7.748    
        7.498       7.221       6.994       6.782       6.573       6.278       5.995       5.804       5.659       5.545    
        5.443       5.345       5.239       5.061       4.871       4.723       4.521       4.277       4.037       3.819    
        3.475       2.998       2.621       2.301       1.976       1.637       1.269      0.9036      0.4630       0.000    
   5    10.00       9.944       9.910       9.881       9.858       9.818       9.746       9.637       9.527       9.427    
        9.317       9.178       8.983       8.772       8.582       8.422       8.261       8.093       7.906       7.673    
        7.384       7.155       6.966       6.751       6.483       6.178       5.945       5.808       5.689       5.574    
        5.457       5.337       5.216       5.045       4.852       4.672       4.491       4.298       4.080       3.792    
        3.402       3.039       2.715       2.392       2.037       1.642       1.180      0.7610      0.3940       0.000    
   6    10.00       9.953       9.920       9.891       9.861       9.816       9.740       9.622       9.526       9.419    
        9.297       9.125       8.911       8.736       8.561       8.379       8.214       8.064       7.856       7.592    
        7.335       7.116       6.922       6.658       6.367       6.136       5.946       5.818       5.687       5.567    
        5.464       5.333       5.182       5.005       4.817       4.663       4.505       4.330       4.099       3.789    
        3.447       3.096       2.765       2.439       2.054       1.576       1.079      0.7157      0.3684       0.000    
   7    10.00       9.960       9.930       9.900       9.868       9.814       9.711       9.598       9.499       9.366    
        9.241       9.058       8.865       8.685       8.505       8.321       8.161       8.023       7.784       7.502    
        7.270       7.049       6.833       6.576       6.329       6.117       5.950       5.799       5.659       5.564    
        5.459       5.314       5.154       4.975       4.813       4.675       4.530       4.349       4.113       3.830    
        3.490       3.128       2.785       2.424       2.044       1.543       1.032      0.6817      0.3226       0.000    
   8    10.00       9.967       9.940       9.908       9.870       9.784       9.659       9.552       9.428       9.301    
        9.163       8.976       8.812       8.629       8.428       8.249       8.110       7.946       7.721       7.448    
        7.179       6.975       6.796       6.532       6.276       6.087       5.898       5.735       5.639       5.548    
        5.422       5.278       5.142       4.985       4.814       4.671       4.560       4.422       4.190       3.864    
        3.491       3.169       2.848       2.428       2.004       1.444      0.9562      0.6678      0.3090       0.000    
   9    10.00       9.974       9.944       9.907       9.844       9.730       9.598       9.473       9.364       9.234    
        9.071       8.905       8.742       8.567       8.360       8.192       8.062       7.869       7.647       7.370    
        7.136       6.933       6.681       6.412       6.195       6.027       5.838       5.700       5.605       5.502    
        5.387       5.257       5.129       4.991       4.845       4.708       4.594       4.471       4.231       3.878    
        3.534       3.247       2.909       2.503       1.876       1.243      0.9111      0.5648      0.2155       0.000    
  10    10.00       9.974       9.943       9.892       9.794       9.660       9.513       9.416       9.313       9.160    
        9.017       8.853       8.691       8.502       8.311       8.159       7.984       7.785       7.551       7.326    
        7.097       6.789       6.529       6.317       6.132       5.980       5.806       5.664       5.570       5.484    
        5.362       5.222       5.107       4.980       4.850       4.756       4.643       4.499       4.225       3.875    
        3.605       3.352       2.963       2.352       1.626       1.167      0.8270      0.5050      0.2519       0.000    
  11    10.00       9.974       9.933       9.853       9.744       9.594       9.464       9.383       9.260       9.129    
        8.993       8.821       8.627       8.424       8.264       8.101       7.938       7.724       7.497       7.275    
        6.951       6.653       6.445       6.254       6.074       5.907       5.742       5.630       5.551       5.466    
        5.327       5.196       5.100       4.986       4.880       4.775       4.646       4.491       4.232       3.952    
        3.667       3.338       2.914       2.240       1.560       1.098      0.7752      0.5880      0.3248       0.000    
  12    10.00       9.972       9.915       9.813       9.670       9.521       9.418       9.337       9.230       9.112    
        8.963       8.780       8.585       8.405       8.242       8.062       7.875       7.656       7.426       7.126    
        6.806       6.580       6.375       6.179       5.982       5.815       5.698       5.613       5.513       5.404    
        5.281       5.183       5.098       5.007       4.913       4.808       4.669       4.480       4.240       3.987    
        3.682       3.323       2.743       1.985       1.407       1.081      0.8608      0.6241      0.3557       0.000    
  13    10.00       9.962       9.874       9.734       9.586       9.458       9.375       9.304       9.213       9.099    
        8.942       8.752       8.574       8.429       8.240       8.019       7.800       7.563       7.307       7.015    
        6.734       6.489       6.267       6.065       5.876       5.753       5.677       5.560       5.431       5.334    
        5.255       5.177       5.100       5.023       4.934       4.841       4.715       4.499       4.252       3.952    
        3.602       3.148       2.476       1.862       1.441       1.163      0.9051      0.6257      0.3091       0.000    
  14    10.00       9.932       9.806       9.652       9.514       9.414       9.358       9.293       9.206       9.081    
        8.908       8.746       8.599       8.449       8.236       7.976       7.740       7.472       7.186       6.883    
        6.610       6.365       6.145       5.946       5.798       5.713       5.621       5.480       5.370       5.296    
        5.238       5.165       5.100       5.028       4.947       4.872       4.725       4.503       4.242       3.868    
        3.455       2.921       2.403       1.954       1.534       1.208      0.9213      0.6264      0.2790       0.000    
  15    10.00       9.873       9.733       9.596       9.485       9.408       9.347       9.286       9.199       9.084    
        8.931       8.773       8.629       8.418       8.170       7.921       7.658       7.380       7.040       6.715    
        6.462       6.225       6.017       5.864       5.751       5.661       5.550       5.418       5.327       5.273    
        5.209       5.149       5.098       5.031       4.954       4.874       4.718       4.507       4.179       3.775    
        3.347       2.865       2.445       1.981       1.627       1.279      0.9327      0.6204      0.2545       0.000    
  16    10.00       9.852       9.700       9.575       9.480       9.410       9.347       9.290       9.207       9.087    
        8.944       8.794       8.617       8.351       8.080       7.873       7.615       7.243       6.854       6.551    
        6.288       6.089       5.920       5.788       5.665       5.582       5.461       5.353       5.283       5.221    
        5.174       5.135       5.081       5.020       4.952       4.859       4.716       4.461       4.103       3.735    
        3.368       2.904       2.430       2.021       1.687       1.321      0.9299      0.5559      0.2092       0.000    
  17    10.00       9.833       9.680       9.579       9.495       9.424       9.362       9.298       9.208       9.097    
        8.964       8.775       8.534       8.248       8.020       7.825       7.511       7.092       6.696       6.403    
        6.190       5.968       5.780       5.641       5.539       5.436       5.330       5.261       5.203       5.167    
        5.148       5.111       5.056       4.994       4.925       4.826       4.657       4.436       4.145       3.758    
        3.338       2.848       2.410       2.048       1.706       1.331      0.9496      0.5792      0.2448       0.000    
  18    10.00       9.823       9.680       9.593       9.517       9.449       9.387       9.310       9.222       9.102    
        8.943       8.721       8.453       8.210       7.986       7.701       7.337       6.954       6.605       6.315    
        6.054       5.768       5.605       5.489       5.400       5.284       5.215       5.156       5.118       5.117    
        5.107       5.075       5.019       4.951       4.879       4.773       4.611       4.430       4.178       3.821    
        3.275       2.752       2.394       2.050       1.759       1.365      0.9442      0.5678      0.2446       0.000    
  19    10.00       9.831       9.712       9.622       9.541       9.472       9.401       9.329       9.247       9.110    
        8.922       8.685       8.419       8.150       7.855       7.545       7.207       6.838       6.485       6.178    
        5.874       5.624       5.492       5.402       5.277       5.174       5.115       5.062       5.051       5.050    
        5.050       5.028       4.964       4.900       4.840       4.757       4.604       4.405       4.150       3.731    
        3.182       2.737       2.380       2.042       1.716       1.309      0.9067      0.5642      0.2659       0.000    
  20    10.00       9.840       9.739       9.660       9.582       9.501       9.416       9.339       9.257       9.117    
        8.913       8.667       8.358       8.008       7.669       7.416       7.075       6.677       6.367       6.061    
        5.790       5.581       5.422       5.285       5.126       5.053       5.014       4.987       4.989       4.988    
        4.989       4.960       4.906       4.866       4.813       4.728       4.553       4.352       4.061       3.591    
        3.117       2.762       2.349       1.963       1.608       1.208      0.9093      0.5602      0.2484       0.000    
  21    10.00       9.864       9.772       9.693       9.608       9.530       9.436       9.353       9.264       9.107    
        8.888       8.587       8.203       7.793       7.476       7.244       6.923       6.631       6.339       6.008    
        5.749       5.519       5.320       5.063       4.930       4.892       4.836       4.871       4.903       4.901    
        4.896       4.866       4.849       4.825       4.780       4.663       4.489       4.313       3.890       3.402    
        3.049       2.666       2.245       1.886       1.509       1.159      0.8232      0.4935      0.2479       0.000    
  22    10.00       9.893       9.797       9.711       9.629       9.555       9.449       9.341       9.238       9.076    
        8.808       8.430       7.996       7.611       7.337       7.094       6.848       6.637       6.316       5.992    
        5.720       5.392       5.035       4.765       4.665       4.567       4.580       4.682       4.722       4.744    
        4.761       4.757       4.773       4.779       4.735       4.612       4.434       4.111       3.630       3.318    
        2.939       2.526       2.149       1.803       1.482       1.067      0.7143      0.4732      0.2660       0.000    
  23    10.00       9.894       9.802       9.724       9.638       9.540       9.420       9.323       9.232       9.028    
        8.700       8.293       7.897       7.560       7.279       7.074       6.842       6.564       6.257       5.998    
        5.620       5.139       4.756       4.480       4.077       4.078       4.294       4.416       4.505       4.590    
        4.629       4.660       4.692       4.713       4.672       4.546       4.285       3.911       3.518       3.135    
        2.774       2.434       2.070       1.797       1.391      0.9697      0.6948      0.4549      0.2362       0.000    
  24    10.00       9.918       9.813       9.711       9.611       9.499       9.391       9.307       9.206       8.966    
        8.592       8.208       7.879       7.585       7.318       7.048       6.764       6.511       6.267       5.963    
        5.511       5.034       4.579       3.747       2.858       3.378       3.878       4.170       4.333       4.467    
        4.539       4.584       4.627       4.631       4.586       4.424       4.133       3.823       3.391       2.983    
        2.701       2.373       2.029       1.680       1.245      0.8996      0.6683      0.4261      0.1880       0.000    
  25    10.00       9.910       9.789       9.665       9.547       9.446       9.363       9.279       9.154       8.904    
        8.512       8.154       7.902       7.628       7.318       7.039       6.772       6.552       6.325       5.935    
        5.417       4.947       4.219       2.866      3.7516E-02   2.769       3.557       4.018       4.260       4.400    
        4.483       4.538       4.573       4.564       4.505       4.327       4.016       3.656       3.304       2.957    
        2.634       2.279       1.888       1.520       1.108      0.8261      0.6655      0.4142      0.1535       0.000    
  26    10.00       9.887       9.732       9.592       9.497       9.415       9.334       9.231       9.082       8.774    
        8.408       8.157       7.916       7.642       7.353       7.084       6.834       6.616       6.332       5.916    
        5.461       4.943       4.306       3.576       2.904       3.261       3.731       4.055       4.252       4.381    
        4.459       4.514       4.532       4.510       4.426       4.214       3.871       3.579       3.296       2.924    
        2.588       2.187       1.739       1.344       1.007      0.8084      0.6294      0.3692      0.1571       0.000    
  27    10.00       9.863       9.697       9.566       9.487       9.379       9.272       9.141       8.941       8.648    
        8.389       8.167       7.921       7.654       7.370       7.157       6.985       6.692       6.334       5.910    
        5.523       5.149       4.638       4.158       3.779       3.840       4.020       4.179       4.304       4.395    
        4.475       4.517       4.517       4.471       4.357       4.116       3.843       3.588       3.259       2.909    
        2.562       2.078       1.566       1.196      0.9611      0.7952      0.5986      0.3902      0.1882       0.000    
  28    10.00       9.845       9.723       9.576       9.440       9.309       9.189       9.034       8.835       8.607    
        8.393       8.194       7.950       7.653       7.400       7.229       7.038       6.714       6.298       5.924    
        5.651       5.372       4.972       4.600       4.361       4.282       4.277       4.326       4.405       4.477    
        4.524       4.532       4.514       4.444       4.296       4.078       3.861       3.561       3.220       2.868    
        2.445       1.991       1.482       1.114      0.9505      0.7920      0.6170      0.4075      0.1889       0.000    
  29    10.00       9.850       9.699       9.543       9.380       9.253       9.117       8.945       8.776       8.595    
        8.404       8.206       7.968       7.717       7.501       7.300       7.045       6.684       6.305       6.015    
        5.783       5.539       5.212       4.882       4.687       4.580       4.513       4.509       4.545       4.565    
        4.564       4.551       4.512       4.417       4.250       4.064       3.864       3.585       3.208       2.763    
        2.377       1.893       1.386       1.098      0.9534      0.7975      0.6123      0.3981      0.1979       0.000    
  30    10.00       9.828       9.675       9.488       9.322       9.206       9.061       8.909       8.778       8.615    
        8.419       8.205       7.987       7.787       7.595       7.368       7.042       6.707       6.404       6.130    
        5.932       5.691       5.394       5.108       4.873       4.777       4.712       4.684       4.658       4.632    
        4.602       4.570       4.509       4.387       4.236       4.090       3.890       3.531       3.066       2.613    
        2.223       1.780       1.394       1.128      0.9751      0.7993      0.6014      0.4172      0.2047       0.000    
  31    10.00       9.805       9.629       9.449       9.300       9.178       9.041       8.906       8.776       8.616    
        8.422       8.206       8.018       7.852       7.671       7.415       7.093       6.803       6.566       6.324    
        6.114       5.844       5.551       5.311       5.070       4.914       4.847       4.782       4.734       4.683    
        4.641       4.585       4.501       4.382       4.237       4.074       3.759       3.360       2.974       2.533    
        2.165       1.724       1.349       1.156      0.9931      0.8276      0.6217      0.4177      0.1980       0.000    
  32    10.00       9.790       9.600       9.446       9.320       9.199       9.055       8.902       8.744       8.593    
        8.400       8.213       8.046       7.862       7.693       7.475       7.226       7.009       6.767       6.518    
        6.307       6.054       5.760       5.502       5.252       5.030       4.941       4.859       4.790       4.717    
        4.658       4.605       4.493       4.347       4.212       3.986       3.597       3.222       2.884       2.484    
        2.055       1.645       1.370       1.222       1.044      0.8347      0.6170      0.3968      0.1979       0.000    
  33    10.00       9.783       9.620       9.497       9.371       9.230       9.057       8.886       8.716       8.543    
        8.383       8.225       8.060       7.885       7.697       7.528       7.347       7.162       6.964       6.721    
        6.475       6.238       5.992       5.692       5.384       5.132       5.001       4.918       4.832       4.740    
        4.673       4.593       4.471       4.333       4.136       3.826       3.429       3.114       2.789       2.323    
        1.935       1.668       1.450       1.274       1.071      0.8510      0.5843      0.3491      0.1573       0.000    
  34    10.00       9.802       9.669       9.553       9.413       9.239       9.057       8.857       8.669       8.524    
        8.381       8.237       8.088       7.907       7.742       7.578       7.421       7.275       7.085       6.837    
        6.605       6.391       6.148       5.836       5.498       5.216       5.048       4.949       4.853       4.750    
        4.662       4.574       4.454       4.280       4.039       3.656       3.271       2.991       2.607       2.198    
        1.960       1.785       1.575       1.348       1.081      0.7717      0.4721      0.2795      0.1159       0.000    
  35    10.00       9.835       9.715       9.597       9.447       9.251       9.042       8.820       8.642       8.517    
        8.421       8.277       8.111       7.919       7.743       7.626       7.512       7.361       7.164       6.929    
        6.708       6.496       6.271       5.919       5.536       5.266       5.083       4.970       4.859       4.742    
        4.654       4.551       4.410       4.179       3.803       3.406       3.152       2.863       2.472       2.229    
        2.063       1.864       1.653       1.432       1.094      0.6561      0.3625      0.2383      0.1209       0.000    
  36    10.00       9.854       9.750       9.637       9.477       9.245       8.989       8.780       8.652       8.557    
        8.426       8.261       8.108       7.938       7.784       7.669       7.559       7.425       7.270       7.052    
        6.822       6.600       6.321       5.940       5.563       5.289       5.116       4.982       4.843       4.728    
        4.626       4.495       4.267       3.921       3.578       3.309       3.073       2.770       2.463       2.302    
        2.134       1.956       1.743       1.458      0.9976      0.5523      0.3404      0.2178      0.1119       0.000    
  37    10.00       9.869       9.789       9.667       9.453       9.199       8.974       8.811       8.705       8.590    
        8.420       8.244       8.112       7.965       7.821       7.711       7.610       7.485       7.321       7.131    
        6.944       6.700       6.350       5.988       5.628       5.318       5.107       4.938       4.810       4.690    
        4.564       4.369       4.026       3.715       3.478       3.247       3.005       2.769       2.551       2.372    
        2.211       2.010       1.768       1.393      0.9139      0.5324      0.3188      0.2026      0.1016       0.000    
  38    10.00       9.889       9.791       9.658       9.436       9.174       8.983       8.862       8.753       8.617    
        8.437       8.252       8.122       7.987       7.844       7.733       7.645       7.536       7.374       7.210    
        7.037       6.754       6.354       5.961       5.601       5.296       5.064       4.876       4.750       4.638    
        4.469       4.147       3.847       3.655       3.423       3.195       3.022       2.825       2.626       2.454    
        2.265       1.992       1.685       1.278      0.8025      0.5099      0.3586      0.2234      0.1003       0.000    
  39    10.00       9.887       9.776       9.637       9.423       9.185       9.013       8.906       8.771       8.620    
        8.474       8.288       8.139       8.011       7.873       7.755       7.655       7.548       7.418       7.269    
        7.064       6.758       6.341       5.899       5.528       5.242       4.978       4.784       4.690       4.579    
        4.312       3.985       3.803       3.585       3.371       3.211       3.069       2.889       2.697       2.536    
        2.261       1.875       1.515       1.075      0.7156      0.5522      0.4111      0.2676      0.1377       0.000    
  40    10.00       9.878       9.781       9.638       9.441       9.242       9.074       8.931       8.772       8.634    
        8.524       8.342       8.155       8.024       7.897       7.763       7.652       7.568       7.453       7.272    
        7.033       6.679       6.253       5.837       5.460       5.161       4.859       4.708       4.624       4.474    
        4.234       3.996       3.751       3.527       3.378       3.241       3.106       2.939       2.762       2.552    
        2.180       1.759       1.369       1.014      0.7676      0.5993      0.4587      0.3237      0.1590       0.000    
  41    10.00       9.895       9.817       9.678       9.475       9.267       9.107       8.979       8.822       8.658    
        8.527       8.360       8.186       8.063       7.915       7.755       7.660       7.568       7.416       7.215    
        6.968       6.620       6.192       5.788       5.411       5.010       4.733       4.653       4.560       4.450    
        4.262       3.975       3.731       3.556       3.408       3.287       3.139       2.979       2.796       2.468    
        2.033       1.623       1.285       1.024      0.8105      0.6544      0.5041      0.3561      0.1875       0.000    
  42    10.00       9.921       9.835       9.701       9.526       9.328       9.146       9.014       8.872       8.690    
        8.522       8.362       8.214       8.096       7.939       7.770       7.655       7.528       7.362       7.132    
        6.846       6.464       6.090       5.687       5.195       4.842       4.702       4.638       4.559       4.442    
        4.222       3.972       3.745       3.569       3.451       3.322       3.191       3.019       2.727       2.292    
        1.912       1.607       1.314       1.019      0.8208      0.6881      0.5440      0.3707      0.2057       0.000    
  43    10.00       9.938       9.845       9.707       9.534       9.369       9.207       9.059       8.883       8.694    
        8.539       8.378       8.231       8.122       7.974       7.783       7.628       7.483       7.256       6.962    
        6.683       6.315       5.971       5.508       5.046       4.817       4.708       4.635       4.560       4.437    
        4.229       4.001       3.784       3.613       3.500       3.372       3.201       2.955       2.528       2.143    
        1.907       1.637       1.328       1.022      0.8125      0.6898      0.5787      0.4009      0.1879       0.000    
  44    10.00       9.930       9.851       9.707       9.550       9.431       9.267       9.065       8.865       8.707    
        8.553       8.390       8.262       8.146       7.973       7.767       7.589       7.415       7.147       6.854    
        6.521       6.155       5.789       5.328       4.984       4.815       4.722       4.659       4.578       4.422    
        4.210       4.028       3.838       3.679       3.563       3.388       3.160       2.808       2.374       2.121    
        1.905       1.623       1.314       1.036      0.8223      0.6917      0.5791      0.3926      0.1730       0.000    
  45    10.00       9.916       9.820       9.704       9.589       9.436       9.263       9.070       8.871       8.712    
        8.551       8.405       8.291       8.158       7.968       7.746       7.547       7.350       7.060       6.717    
        6.335       5.948       5.555       5.218       4.981       4.839       4.749       4.682       4.579       4.452    
        4.269       4.063       3.892       3.729       3.563       3.377       3.128       2.753       2.378       2.082    
        1.836       1.571       1.283       1.034      0.8480      0.7397      0.5716      0.3402      0.1551       0.000    
  46    10.00       9.898       9.799       9.706       9.576       9.399       9.232       9.073       8.877       8.707    
        8.564       8.428       8.313       8.153       7.950       7.752       7.540       7.283       6.970       6.598    
        6.150       5.767       5.454       5.199       5.020       4.895       4.783       4.693       4.611       4.470    
        4.275       4.096       3.929       3.741       3.576       3.400       3.119       2.687       2.294       2.031    
        1.800       1.546       1.276       1.057      0.9129      0.7735      0.5183      0.2548      0.1108       0.000    
  47    10.00       9.892       9.791       9.663       9.510       9.366       9.222       9.050       8.871       8.719    
        8.588       8.466       8.304       8.129       7.947       7.755       7.521       7.222       6.930       6.478    
        5.993       5.695       5.426       5.227       5.060       4.938       4.826       4.716       4.621       4.474    
        4.271       4.094       3.925       3.748       3.606       3.392       3.002       2.615       2.287       2.007    
        1.804       1.565       1.324       1.113      0.9349      0.7096      0.4264      0.2228      9.2807E-02   0.000    
  48    10.00       9.879       9.758       9.622       9.483       9.355       9.209       9.051       8.886       8.737    
        8.604       8.460       8.282       8.102       7.924       7.733       7.509       7.227       6.863       6.415    
        5.997       5.692       5.431       5.248       5.113       4.962       4.848       4.756       4.639       4.439    
        4.240       4.067       3.912       3.781       3.594       3.312       2.941       2.593       2.282       2.036    
        1.818       1.589       1.373       1.134      0.8669      0.5765      0.3644      0.2161      9.7639E-02   0.000    
  49    10.00       9.868       9.736       9.603       9.489       9.356       9.201       9.047       8.913       8.758    
        8.598       8.417       8.242       8.092       7.888       7.702       7.516       7.200       6.841       6.485    
        6.044       5.704       5.444       5.284       5.125       4.962       4.874       4.786       4.597       4.357    
        4.187       4.049       3.936       3.766       3.549       3.297       2.926       2.579       2.336       2.074    
        1.817       1.607       1.376       1.095      0.7675      0.5140      0.3645      0.2352      0.1207       0.000    
  50    10.00       9.873       9.741       9.605       9.482       9.351       9.213       9.061       8.920       8.781    
        8.585       8.396       8.235       8.034       7.827       7.684       7.507       7.263       6.908       6.555    
        6.105       5.677       5.452       5.289       5.123       4.990       4.884       4.766       4.542       4.315    
        4.174       4.060       3.929       3.752       3.551       3.311       2.936       2.580       2.343       2.107    
        1.863       1.599       1.339       1.038      0.7155      0.5259      0.3921      0.2658      0.1603       0.000    

 HEAD WILL BE SAVED ON UNIT   51 AT END OF TIME STEP  45, STRESS PERIOD    2

 DRAWDOWN WILL BE SAVED ON UNIT   52 AT END OF TIME STEP  45, STRESS PERIOD    2
1
  VOLUMETRIC BUDGET FOR ENTIRE MODEL AT END OF TIME STEP 45 IN STRESS PERIOD   2
  ------------------------------------------------------------------------------

     CUMULATIVE VOLUMES      L**3       RATES FOR THIS TIME STEP      L**3/T
     ------------------                 ------------------------

           IN:                                      IN:
           ---                                      ---
             STORAGE =       22355.4824               STORAGE =         486.5788
       CONSTANT HEAD =       17269.4023         CONSTANT HEAD =         384.8394
               WELLS =           0.0000                 WELLS =           0.0000

            TOTAL IN =       39624.8828              TOTAL IN =         871.4182

          OUT:                                     OUT:
          ----                                     ----
             STORAGE =       1.1143E-02               STORAGE =           0.0000
       CONSTANT HEAD =       17124.8711         CONSTANT HEAD =         371.4183
               WELLS =       22500.0000                 WELLS =         500.0000

           TOTAL OUT =       39624.8828             TOTAL OUT =         871.4183

            IN - OUT =           0.0000              IN - OUT =      -6.1035E-05

 PERCENT DISCREPANCY =           0.00     PERCENT DISCREPANCY =           0.00






          TIME SUMMARY AT END OF TIME STEP  45 IN STRESS PERIOD    2
                    SECONDS     MINUTES      HOURS       DAYS        YEARS
                    -----------------------------------------------------------
   TIME STEP LENGTH  86400.      1440.0      24.000      1.0000     2.73785E-03
 STRESS PERIOD TIME 3.88800E+06  64800.      1080.0      45.000     0.12320    
         TOTAL TIME 3.97440E+06  66240.      1104.0      46.000     0.12594    
1
 
 SOLVING FOR HEAD 

 OUTPUT CONTROL FOR STRESS PERIOD    2   TIME STEP  46
    SAVE HEAD FOR ALL LAYERS
    SAVE DRAWDOWN FOR ALL LAYERS
    SAVE BUDGET
    PRINT HEAD FOR ALL LAYERS
    PRINT BUDGET
 UBDSV1 SAVING "         STORAGE" ON UNIT  53 AT TIME STEP 46, STRESS PERIOD   2
 UBDSV2 SAVING "   CONSTANT HEAD" ON UNIT  53 AT TIME STEP 46, STRESS PERIOD   2
 UBDSV1 SAVING "FLOW RIGHT FACE " ON UNIT  53 AT TIME STEP 46, STRESS PERIOD   2
 UBDSV1 SAVING "FLOW FRONT FACE " ON UNIT  53 AT TIME STEP 46, STRESS PERIOD   2
1
              HEAD IN LAYER   1 AT END OF TIME STEP  46 IN STRESS PERIOD    2
  ---------------------------------------------------------------------------

            1           2           3           4           5           6           7           8           9          10
           11          12          13          14          15          16          17          18          19          20
           21          22          23          24          25          26          27          28          29          30
           31          32          33          34          35          36          37          38          39          40
           41          42          43          44          45          46          47          48          49          50
 ........................................................................................................................
   1    10.00       9.953       9.905       9.850       9.806       9.769       9.719       9.651       9.576       9.507    
        9.355       9.165       9.024       8.868       8.701       8.532       8.376       8.196       7.955       7.715    
        7.552       7.365       7.118       6.868       6.644       6.449       6.172       5.918       5.739       5.551    
        5.389       5.283       5.169       5.039       4.913       4.758       4.591       4.364       4.105       3.822    
        3.456       3.085       2.597       2.065       1.665       1.377       1.162      0.9166      0.5381       0.000    
   2    10.00       9.947       9.897       9.850       9.813       9.777       9.722       9.652       9.583       9.490    
        9.342       9.172       9.014       8.871       8.717       8.543       8.357       8.172       7.947       7.706    
        7.527       7.374       7.111       6.840       6.641       6.421       6.153       5.911       5.706       5.528    
        5.391       5.294       5.197       5.057       4.911       4.757       4.564       4.353       4.102       3.779    
        3.437       3.121       2.609       2.081       1.726       1.469       1.222      0.9467      0.5715       0.000    
   3    10.00       9.939       9.897       9.864       9.828       9.791       9.732       9.649       9.566       9.465    
        9.330       9.179       9.027       8.883       8.700       8.482       8.300       8.140       7.934       7.722    
        7.539       7.320       7.061       6.822       6.606       6.359       6.103       5.864       5.652       5.520    
        5.407       5.314       5.216       5.063       4.909       4.745       4.555       4.319       4.038       3.791    
        3.488       3.056       2.557       2.178       1.876       1.577       1.272      0.9595      0.5416       0.000    
   4    10.00       9.939       9.902       9.872       9.848       9.808       9.740       9.644       9.546       9.445    
        9.317       9.181       9.029       8.848       8.623       8.421       8.291       8.111       7.911       7.746    
        7.496       7.218       6.990       6.778       6.569       6.274       5.990       5.800       5.655       5.541    
        5.439       5.341       5.235       5.057       4.867       4.719       4.518       4.274       4.034       3.817    
        3.473       2.997       2.620       2.300       1.976       1.637       1.269      0.9033      0.4629       0.000    
   5    10.00       9.944       9.910       9.881       9.858       9.818       9.746       9.637       9.527       9.426    
        9.317       9.177       8.982       8.771       8.580       8.421       8.259       8.091       7.904       7.671    
        7.381       7.152       6.962       6.747       6.479       6.174       5.940       5.804       5.684       5.569    
        5.452       5.332       5.212       5.041       4.848       4.668       4.488       4.295       4.077       3.790    
        3.400       3.037       2.714       2.391       2.037       1.642       1.180      0.7608      0.3939       0.000    
   6    10.00       9.953       9.920       9.891       9.861       9.816       9.740       9.622       9.526       9.418    
        9.296       9.124       8.910       8.734       8.559       8.377       8.212       8.062       7.853       7.588    
        7.331       7.112       6.918       6.653       6.362       6.131       5.941       5.813       5.682       5.562    
        5.459       5.328       5.177       5.001       4.812       4.658       4.501       4.326       4.096       3.787    
        3.445       3.094       2.764       2.437       2.053       1.575       1.079      0.7154      0.3683       0.000    
   7    10.00       9.960       9.930       9.900       9.867       9.814       9.711       9.598       9.498       9.365    
        9.240       9.057       8.863       8.683       8.503       8.318       8.158       8.020       7.780       7.499    
        7.266       7.044       6.828       6.571       6.323       6.112       5.945       5.793       5.653       5.559    
        5.453       5.309       5.148       4.970       4.808       4.671       4.525       4.345       4.109       3.827    
        3.487       3.126       2.783       2.423       2.043       1.542       1.032      0.6815      0.3225       0.000    
   8    10.00       9.967       9.940       9.908       9.870       9.783       9.658       9.551       9.427       9.300    
        9.162       8.975       8.811       8.627       8.426       8.246       8.106       7.942       7.717       7.443    
        7.174       6.970       6.790       6.526       6.269       6.080       5.892       5.728       5.632       5.541    
        5.415       5.272       5.136       4.979       4.808       4.666       4.555       4.417       4.186       3.861    
        3.489       3.167       2.846       2.427       2.003       1.443      0.9559      0.6676      0.3089       0.000    
   9    10.00       9.974       9.944       9.907       9.844       9.730       9.597       9.472       9.363       9.233    
        9.070       8.904       8.740       8.564       8.357       8.188       8.058       7.864       7.642       7.364    
        7.130       6.927       6.674       6.405       6.188       6.019       5.830       5.692       5.597       5.494    
        5.379       5.250       5.122       4.984       4.838       4.702       4.588       4.465       4.226       3.874    
        3.531       3.245       2.907       2.502       1.875       1.243      0.9107      0.5646      0.2154       0.000    
  10    10.00       9.974       9.943       9.891       9.794       9.659       9.512       9.415       9.312       9.158    
        9.015       8.851       8.688       8.498       8.307       8.155       7.980       7.780       7.546       7.320    
        7.091       6.781       6.521       6.308       6.123       5.972       5.797       5.655       5.561       5.475    
        5.354       5.214       5.099       4.972       4.843       4.750       4.637       4.494       4.220       3.871    
        3.602       3.350       2.961       2.351       1.625       1.167      0.8267      0.5048      0.2518       0.000    
  11    10.00       9.974       9.933       9.853       9.744       9.593       9.463       9.382       9.259       9.128    
        8.991       8.818       8.624       8.421       8.260       8.096       7.933       7.718       7.490       7.269    
        6.943       6.645       6.436       6.244       6.065       5.897       5.732       5.620       5.542       5.456    
        5.318       5.188       5.092       4.978       4.872       4.768       4.640       4.485       4.227       3.947    
        3.664       3.335       2.912       2.239       1.559       1.097      0.7749      0.5878      0.3247       0.000    
  12    10.00       9.972       9.915       9.812       9.669       9.520       9.417       9.335       9.228       9.110    
        8.960       8.777       8.582       8.402       8.237       8.057       7.869       7.650       7.419       7.119    
        6.797       6.571       6.365       6.169       5.972       5.804       5.688       5.603       5.503       5.394    
        5.271       5.174       5.089       4.999       4.905       4.800       4.662       4.474       4.235       3.982    
        3.678       3.320       2.741       1.984       1.406       1.081      0.8605      0.6238      0.3556       0.000    
  13    10.00       9.962       9.874       9.734       9.585       9.457       9.374       9.302       9.211       9.097    
        8.940       8.749       8.570       8.425       8.235       8.014       7.794       7.556       7.299       7.006    
        6.725       6.479       6.256       6.054       5.865       5.742       5.666       5.549       5.421       5.323    
        5.244       5.167       5.090       5.014       4.925       4.833       4.707       4.492       4.246       3.948    
        3.598       3.145       2.474       1.860       1.440       1.162      0.9048      0.6255      0.3090       0.000    
  14    10.00       9.932       9.805       9.651       9.513       9.412       9.357       9.291       9.204       9.079    
        8.905       8.743       8.596       8.445       8.231       7.970       7.733       7.464       7.178       6.873    
        6.600       6.354       6.134       5.934       5.786       5.701       5.609       5.468       5.359       5.284    
        5.227       5.154       5.090       5.018       4.937       4.863       4.717       4.496       4.236       3.863    
        3.451       2.918       2.401       1.952       1.533       1.207      0.9209      0.6261      0.2789       0.000    
  15    10.00       9.873       9.732       9.594       9.484       9.407       9.345       9.284       9.197       9.081    
        8.928       8.770       8.625       8.414       8.164       7.914       7.650       7.371       7.030       6.704    
        6.450       6.213       6.005       5.851       5.739       5.649       5.538       5.405       5.315       5.261    
        5.197       5.138       5.087       5.020       4.944       4.864       4.709       4.499       4.173       3.770    
        3.343       2.863       2.443       1.980       1.626       1.279      0.9324      0.6202      0.2544       0.000    
  16    10.00       9.852       9.700       9.574       9.479       9.408       9.345       9.288       9.205       9.085    
        8.941       8.790       8.612       8.346       8.073       7.866       7.607       7.233       6.843       6.539    
        6.276       6.076       5.907       5.775       5.652       5.569       5.448       5.340       5.270       5.209    
        5.162       5.123       5.070       5.009       4.941       4.849       4.707       4.453       4.097       3.730    
        3.364       2.901       2.428       2.019       1.686       1.321      0.9296      0.5557      0.2092       0.000    
  17    10.00       9.832       9.679       9.578       9.494       9.422       9.360       9.296       9.206       9.094    
        8.960       8.771       8.529       8.242       8.012       7.817       7.502       7.082       6.684       6.390    
        6.177       5.954       5.766       5.627       5.525       5.422       5.316       5.247       5.190       5.154    
        5.135       5.099       5.044       4.983       4.914       4.815       4.648       4.427       4.138       3.753    
        3.334       2.845       2.408       2.047       1.705       1.330      0.9493      0.5790      0.2448       0.000    
  18    10.00       9.823       9.679       9.592       9.516       9.447       9.385       9.308       9.219       9.099    
        8.939       8.716       8.447       8.203       7.979       7.692       7.326       6.942       6.592       6.302    
        6.040       5.754       5.590       5.475       5.385       5.269       5.200       5.141       5.104       5.104    
        5.093       5.062       5.007       4.939       4.868       4.762       4.602       4.421       4.171       3.815    
        3.271       2.750       2.393       2.049       1.758       1.364      0.9438      0.5676      0.2445       0.000    
  19    10.00       9.830       9.711       9.621       9.540       9.471       9.399       9.327       9.245       9.107    
        8.918       8.680       8.413       8.143       7.846       7.535       7.196       6.825       6.472       6.164    
        5.859       5.608       5.477       5.387       5.261       5.158       5.100       5.047       5.036       5.035    
        5.036       5.014       4.951       4.888       4.828       4.746       4.593       4.396       4.143       3.726    
        3.178       2.735       2.378       2.041       1.715       1.308      0.9064      0.5641      0.2658       0.000    
  20    10.00       9.840       9.738       9.659       9.581       9.499       9.414       9.337       9.254       9.114    
        8.909       8.662       8.352       8.000       7.659       7.405       7.063       6.664       6.352       6.046    
        5.774       5.565       5.406       5.270       5.110       5.038       4.999       4.971       4.974       4.973    
        4.975       4.945       4.892       4.853       4.801       4.717       4.543       4.343       4.053       3.586    
        3.114       2.760       2.348       1.962       1.607       1.207      0.9090      0.5601      0.2483       0.000    
  21    10.00       9.863       9.772       9.692       9.607       9.529       9.435       9.351       9.261       9.104    
        8.884       8.582       8.195       7.784       7.465       7.232       6.910       6.617       6.324       5.993    
        5.734       5.504       5.304       5.046       4.914       4.876       4.820       4.855       4.888       4.885    
        4.881       4.851       4.835       4.812       4.767       4.651       4.478       4.304       3.884       3.397    
        3.045       2.664       2.243       1.885       1.509       1.159      0.8230      0.4934      0.2478       0.000    
  22    10.00       9.893       9.797       9.710       9.627       9.554       9.447       9.339       9.235       9.072    
        8.803       8.424       7.987       7.600       7.325       7.082       6.835       6.623       6.301       5.976    
        5.704       5.376       5.018       4.748       4.648       4.550       4.563       4.666       4.706       4.727    
        4.745       4.741       4.758       4.764       4.722       4.599       4.423       4.102       3.625       3.314    
        2.936       2.524       2.147       1.802       1.482       1.066      0.7141      0.4730      0.2659       0.000    
  23    10.00       9.894       9.802       9.724       9.637       9.539       9.418       9.320       9.229       9.024    
        8.694       8.286       7.887       7.549       7.267       7.061       6.828       6.550       6.242       5.982    
        5.604       5.122       4.739       4.463       4.059       4.060       4.277       4.399       4.488       4.573    
        4.612       4.643       4.676       4.697       4.657       4.533       4.275       3.903       3.513       3.131    
        2.771       2.432       2.069       1.796       1.391      0.9694      0.6946      0.4548      0.2362       0.000    
  24    10.00       9.917       9.812       9.710       9.609       9.497       9.389       9.305       9.203       8.961    
        8.586       8.200       7.870       7.574       7.306       7.035       6.750       6.497       6.252       5.948    
        5.495       5.017       4.562       3.730       2.840       3.360       3.860       4.152       4.315       4.449    
        4.521       4.567       4.610       4.615       4.571       4.412       4.123       3.816       3.386       2.979    
        2.698       2.371       2.028       1.679       1.245      0.8993      0.6681      0.4260      0.1880       0.000    
  25    10.00       9.910       9.789       9.664       9.546       9.444       9.361       9.277       9.151       8.900    
        8.506       8.146       7.893       7.618       7.306       7.026       6.759       6.537       6.310       5.919    
        5.401       4.930       4.202       2.848      1.7852E-02   2.750       3.539       4.000       4.242       4.382    
        4.465       4.520       4.556       4.548       4.490       4.314       4.006       3.648       3.298       2.953    
        2.631       2.277       1.887       1.520       1.107      0.8258      0.6653      0.4141      0.1535       0.000    
  26    10.00       9.887       9.731       9.591       9.496       9.414       9.332       9.228       9.079       8.769    
        8.401       8.150       7.906       7.632       7.341       7.071       6.820       6.601       6.317       5.901    
        5.445       4.925       4.288       3.557       2.885       3.242       3.712       4.037       4.234       4.363    
        4.441       4.497       4.515       4.493       4.411       4.201       3.861       3.572       3.291       2.920    
        2.585       2.185       1.737       1.343       1.007      0.8082      0.6292      0.3690      0.1571       0.000    
  27    10.00       9.862       9.696       9.565       9.485       9.377       9.269       9.138       8.937       8.642    
        8.382       8.159       7.912       7.644       7.358       7.145       6.972       6.678       6.319       5.895    
        5.507       5.132       4.621       4.141       3.761       3.821       4.002       4.161       4.286       4.377    
        4.457       4.500       4.500       4.455       4.343       4.104       3.834       3.580       3.253       2.905    
        2.559       2.077       1.565       1.195      0.9607      0.7949      0.5983      0.3901      0.1881       0.000    
  28    10.00       9.844       9.723       9.575       9.439       9.307       9.187       9.031       8.831       8.601    
        8.387       8.187       7.941       7.643       7.389       7.218       7.026       6.701       6.284       5.909    
        5.636       5.356       4.955       4.583       4.343       4.264       4.259       4.308       4.387       4.459    
        4.507       4.515       4.497       4.428       4.282       4.066       3.851       3.553       3.214       2.864    
        2.443       1.989       1.481       1.114      0.9501      0.7916      0.6168      0.4074      0.1889       0.000    
  29    10.00       9.849       9.698       9.542       9.378       9.250       9.114       8.941       8.772       8.589    
        8.398       8.199       7.960       7.708       7.491       7.289       7.032       6.671       6.291       6.000    
        5.768       5.523       5.196       4.865       4.669       4.562       4.495       4.492       4.527       4.548    
        4.547       4.535       4.496       4.402       4.237       4.053       3.854       3.577       3.202       2.759    
        2.374       1.892       1.385       1.097      0.9530      0.7972      0.6121      0.3979      0.1979       0.000    
  30    10.00       9.827       9.674       9.487       9.320       9.203       9.057       8.905       8.774       8.610    
        8.413       8.198       7.979       7.778       7.586       7.357       7.030       6.694       6.390       6.115    
        5.917       5.675       5.378       5.092       4.856       4.759       4.695       4.667       4.641       4.616    
        4.586       4.554       4.494       4.373       4.223       4.078       3.880       3.523       3.061       2.610    
        2.220       1.778       1.393       1.127      0.9746      0.7989      0.6012      0.4171      0.2046       0.000    
  31    10.00       9.804       9.627       9.448       9.297       9.175       9.037       8.902       8.772       8.611    
        8.416       8.199       8.011       7.844       7.662       7.405       7.082       6.791       6.553       6.310    
        6.099       5.828       5.536       5.294       5.054       4.897       4.830       4.766       4.718       4.667    
        4.625       4.570       4.486       4.369       4.224       4.063       3.750       3.353       2.969       2.530    
        2.162       1.722       1.348       1.155      0.9926      0.8272      0.6214      0.4176      0.1979       0.000    
  32    10.00       9.789       9.599       9.445       9.318       9.196       9.052       8.898       8.739       8.588    
        8.395       8.207       8.039       7.854       7.685       7.466       7.216       6.998       6.755       6.505    
        6.293       6.040       5.745       5.486       5.236       5.014       4.925       4.843       4.774       4.701    
        4.643       4.590       4.479       4.334       4.200       3.976       3.589       3.217       2.880       2.481    
        2.053       1.644       1.369       1.221       1.043      0.8343      0.6167      0.3966      0.1978       0.000    
  33    10.00       9.783       9.619       9.496       9.369       9.227       9.054       8.882       8.712       8.538    
        8.377       8.219       8.053       7.877       7.689       7.519       7.337       7.152       6.953       6.709    
        6.462       6.225       5.978       5.677       5.369       5.117       4.986       4.903       4.817       4.726    
        4.659       4.580       4.458       4.321       4.125       3.816       3.422       3.108       2.785       2.321    
        1.933       1.667       1.449       1.273       1.070      0.8505      0.5841      0.3489      0.1572       0.000    
  34    10.00       9.802       9.668       9.552       9.411       9.237       9.054       8.853       8.665       8.519    
        8.375       8.231       8.081       7.900       7.734       7.570       7.412       7.265       7.075       6.826    
        6.593       6.379       6.135       5.822       5.483       5.201       5.034       4.934       4.839       4.737    
        4.648       4.561       4.442       4.269       4.029       3.648       3.266       2.987       2.604       2.196    
        1.959       1.784       1.574       1.347       1.081      0.7713      0.4719      0.2794      0.1158       0.000    
  35    10.00       9.834       9.714       9.596       9.445       9.249       9.040       8.816       8.638       8.513    
        8.416       8.272       8.105       7.912       7.735       7.618       7.503       7.352       7.155       6.919    
        6.697       6.484       6.259       5.906       5.522       5.252       5.069       4.956       4.846       4.729    
        4.641       4.539       4.398       4.169       3.795       3.400       3.147       2.859       2.470       2.227    
        2.062       1.863       1.652       1.431       1.093      0.6558      0.3623      0.2382      0.1209       0.000    
  36    10.00       9.854       9.749       9.636       9.476       9.243       8.987       8.776       8.648       8.553    
        8.422       8.256       8.102       7.932       7.777       7.661       7.551       7.417       7.261       7.042    
        6.812       6.589       6.310       5.928       5.550       5.276       5.103       4.969       4.831       4.716    
        4.614       4.484       4.257       3.913       3.572       3.304       3.069       2.768       2.461       2.300    
        2.133       1.955       1.742       1.457      0.9971      0.5521      0.3403      0.2177      0.1119       0.000    
  37    10.00       9.869       9.788       9.666       9.452       9.197       8.971       8.807       8.701       8.586    
        8.416       8.239       8.106       7.959       7.815       7.704       7.602       7.478       7.313       7.122    
        6.935       6.690       6.339       5.977       5.616       5.307       5.096       4.927       4.799       4.679    
        4.553       4.360       4.019       3.709       3.474       3.243       3.002       2.766       2.549       2.370    
        2.209       2.009       1.767       1.393      0.9135      0.5321      0.3186      0.2025      0.1015       0.000    
  38    10.00       9.888       9.791       9.657       9.435       9.172       8.981       8.859       8.749       8.613    
        8.433       8.247       8.117       7.981       7.837       7.727       7.638       7.529       7.367       7.202    
        7.028       6.745       6.345       5.952       5.591       5.287       5.055       4.867       4.742       4.629    
        4.461       4.140       3.841       3.650       3.419       3.192       3.020       2.823       2.624       2.453    
        2.263       1.990       1.684       1.278      0.8022      0.5097      0.3585      0.2234      0.1002       0.000    
  39    10.00       9.887       9.776       9.636       9.421       9.183       9.011       8.903       8.767       8.616    
        8.470       8.283       8.134       8.006       7.867       7.749       7.649       7.542       7.411       7.262    
        7.057       6.751       6.333       5.892       5.520       5.235       4.971       4.777       4.683       4.572    
        4.306       3.980       3.799       3.582       3.367       3.208       3.066       2.887       2.695       2.534    
        2.260       1.874       1.514       1.075      0.7153      0.5520      0.4109      0.2676      0.1377       0.000    
  40    10.00       9.878       9.780       9.637       9.440       9.240       9.072       8.929       8.769       8.630    
        8.520       8.338       8.150       8.019       7.891       7.757       7.646       7.562       7.447       7.265    
        7.027       6.673       6.247       5.831       5.453       5.155       4.854       4.703       4.618       4.469    
        4.230       3.992       3.747       3.524       3.375       3.239       3.104       2.937       2.760       2.550    
        2.178       1.758       1.368       1.014      0.7673      0.5991      0.4586      0.3237      0.1589       0.000    
  41    10.00       9.895       9.816       9.677       9.474       9.266       9.105       8.977       8.820       8.655    
        8.524       8.356       8.182       8.059       7.910       7.749       7.654       7.562       7.411       7.210    
        6.963       6.615       6.188       5.783       5.406       5.005       4.728       4.649       4.556       4.446    
        4.258       3.972       3.728       3.553       3.405       3.284       3.136       2.977       2.794       2.467    
        2.032       1.623       1.284       1.023      0.8102      0.6542      0.5040      0.3560      0.1874       0.000    
  42    10.00       9.921       9.834       9.701       9.525       9.326       9.144       9.012       8.870       8.687    
        8.519       8.359       8.211       8.092       7.935       7.766       7.650       7.523       7.358       7.128    
        6.842       6.460       6.086       5.684       5.191       4.839       4.699       4.635       4.556       4.438    
        4.219       3.969       3.743       3.567       3.449       3.320       3.189       3.017       2.725       2.291    
        1.912       1.607       1.313       1.018      0.8205      0.6879      0.5438      0.3706      0.2057       0.000    
  43    10.00       9.937       9.844       9.707       9.533       9.368       9.206       9.058       8.881       8.692    
        8.537       8.375       8.229       8.119       7.971       7.779       7.624       7.480       7.253       6.959    
        6.680       6.313       5.968       5.506       5.043       4.814       4.705       4.632       4.557       4.434    
        4.226       3.999       3.781       3.611       3.498       3.370       3.199       2.953       2.526       2.142    
        1.906       1.636       1.327       1.021      0.8123      0.6896      0.5786      0.4008      0.1878       0.000    
  44    10.00       9.930       9.851       9.707       9.549       9.430       9.266       9.064       8.863       8.706    
        8.551       8.388       8.259       8.144       7.970       7.764       7.586       7.413       7.144       6.852    
        6.519       6.153       5.787       5.326       4.981       4.813       4.720       4.657       4.575       4.419    
        4.208       4.026       3.835       3.677       3.561       3.386       3.158       2.806       2.374       2.120    
        1.904       1.622       1.314       1.036      0.8221      0.6915      0.5790      0.3926      0.1730       0.000    
  45    10.00       9.916       9.820       9.704       9.589       9.436       9.263       9.069       8.870       8.711    
        8.550       8.403       8.290       8.156       7.966       7.744       7.545       7.348       7.058       6.715    
        6.333       5.947       5.553       5.216       4.979       4.837       4.747       4.680       4.577       4.450    
        4.267       4.061       3.890       3.727       3.561       3.376       3.127       2.752       2.378       2.082    
        1.836       1.571       1.283       1.034      0.8479      0.7396      0.5714      0.3402      0.1551       0.000    
  46    10.00       9.898       9.799       9.706       9.575       9.399       9.231       9.072       8.876       8.706    
        8.564       8.427       8.312       8.152       7.949       7.751       7.539       7.282       6.969       6.597    
        6.148       5.765       5.453       5.198       5.018       4.893       4.781       4.691       4.609       4.468    
        4.273       4.095       3.927       3.740       3.575       3.399       3.118       2.686       2.294       2.030    
        1.799       1.545       1.275       1.057      0.9127      0.7734      0.5182      0.2547      0.1108       0.000    
  47    10.00       9.892       9.791       9.663       9.510       9.365       9.221       9.049       8.870       8.718    
        8.588       8.465       8.303       8.129       7.946       7.754       7.520       7.221       6.929       6.477    
        5.992       5.694       5.425       5.226       5.059       4.936       4.824       4.714       4.619       4.473    
        4.269       4.093       3.923       3.747       3.604       3.391       3.001       2.614       2.286       2.006    
        1.804       1.564       1.324       1.113      0.9348      0.7095      0.4263      0.2228      9.2796E-02   0.000    
  48    10.00       9.879       9.758       9.622       9.483       9.355       9.209       9.051       8.885       8.736    
        8.603       8.459       8.281       8.101       7.923       7.732       7.508       7.226       6.863       6.414    
        5.996       5.691       5.430       5.247       5.111       4.960       4.846       4.755       4.637       4.438    
        4.239       4.066       3.911       3.780       3.593       3.311       2.941       2.593       2.282       2.036    
        1.818       1.589       1.373       1.134      0.8668      0.5764      0.3643      0.2161      9.7631E-02   0.000    
  49    10.00       9.868       9.736       9.602       9.489       9.356       9.201       9.047       8.913       8.757    
        8.598       8.417       8.241       8.091       7.887       7.701       7.515       7.200       6.840       6.484    
        6.043       5.703       5.443       5.283       5.123       4.960       4.872       4.785       4.596       4.356    
        4.186       4.048       3.935       3.765       3.548       3.296       2.926       2.579       2.335       2.073    
        1.817       1.607       1.376       1.095      0.7675      0.5139      0.3644      0.2352      0.1207       0.000    
  50    10.00       9.873       9.741       9.605       9.481       9.351       9.212       9.060       8.919       8.781    
        8.584       8.395       8.235       8.033       7.826       7.684       7.507       7.262       6.907       6.554    
        6.104       5.677       5.451       5.288       5.121       4.989       4.883       4.765       4.541       4.314    
        4.173       4.059       3.928       3.751       3.550       3.310       2.936       2.580       2.343       2.107    
        1.863       1.599       1.339       1.038      0.7155      0.5259      0.3921      0.2658      0.1603       0.000    

 HEAD WILL BE SAVED ON UNIT   51 AT END OF TIME STEP  46, STRESS PERIOD    2

 DRAWDOWN WILL BE SAVED ON UNIT   52 AT END OF TIME STEP  46, STRESS PERIOD    2
1
  VOLUMETRIC BUDGET FOR ENTIRE MODEL AT END OF TIME STEP 46 IN STRESS PERIOD   2
  ------------------------------------------------------------------------------

     CUMULATIVE VOLUMES      L**3       RATES FOR THIS TIME STEP      L**3/T
     ------------------                 ------------------------

           IN:                                      IN:
           ---                                      ---
             STORAGE =       22841.1660               STORAGE =         485.6843
       CONSTANT HEAD =       17655.0273         CONSTANT HEAD =         385.6241
               WELLS =           0.0000                 WELLS =           0.0000

            TOTAL IN =       40496.1953              TOTAL IN =         871.3083

          OUT:                                     OUT:
          ----                                     ----
             STORAGE =       1.1143E-02               STORAGE =           0.0000
       CONSTANT HEAD =       17496.1797         CONSTANT HEAD =         371.3080
               WELLS =       23000.0000                 WELLS =         500.0000

           TOTAL OUT =       40496.1914             TOTAL OUT =         871.3080

            IN - OUT =       3.9063E-03              IN - OUT =       3.0518E-04

 PERCENT DISCREPANCY =           0.00     PERCENT DISCREPANCY =           0.00






          TIME SUMMARY AT END OF TIME STEP  46 IN STRESS PERIOD    2
                    SECONDS     MINUTES      HOURS       DAYS        YEARS
                    -----------------------------------------------------------
   TIME STEP LENGTH  86400.      1440.0      24.000      1.0000     2.73785E-03
 STRESS PERIOD TIME 3.97440E+06  66240.      1104.0      46.000     0.12594    
         TOTAL TIME 4.06080E+06  67680.      1128.0      47.000     0.12868    
1
 
 SOLVING FOR HEAD 

 OUTPUT CONTROL FOR STRESS PERIOD    2   TIME STEP  47
    SAVE HEAD FOR ALL LAYERS
    SAVE DRAWDOWN FOR ALL LAYERS
    SAVE BUDGET
    PRINT HEAD FOR ALL LAYERS
    PRINT BUDGET
 UBDSV1 SAVING "         STORAGE" ON UNIT  53 AT TIME STEP 47, STRESS PERIOD   2
 UBDSV2 SAVING "   CONSTANT HEAD" ON UNIT  53 AT TIME STEP 47, STRESS PERIOD   2
 UBDSV1 SAVING "FLOW RIGHT FACE " ON UNIT  53 AT TIME STEP 47, STRESS PERIOD   2
 UBDSV1 SAVING "FLOW FRONT FACE " ON UNIT  53 AT TIME STEP 47, STRESS PERIOD   2
1
              HEAD IN LAYER   1 AT END OF TIME STEP  47 IN STRESS PERIOD    2
  ---------------------------------------------------------------------------

            1           2           3           4           5           6           7           8           9          10
           11          12          13          14          15          16          17          18          19          20
           21          22          23          24          25          26          27          28          29          30
           31          32          33          34          35          36          37          38          39          40
           41          42          43          44          45          46          47          48          49          50
 ........................................................................................................................
   1    10.00       9.952       9.905       9.849       9.805       9.768       9.719       9.650       9.575       9.506    
        9.355       9.164       9.023       8.867       8.700       8.531       8.374       8.194       7.953       7.713    
        7.550       7.362       7.115       6.865       6.641       6.446       6.168       5.915       5.736       5.548    
        5.385       5.280       5.165       5.035       4.910       4.755       4.588       4.362       4.103       3.820    
        3.455       3.083       2.596       2.064       1.665       1.377       1.162      0.9164      0.5380       0.000    
   2    10.00       9.947       9.897       9.850       9.813       9.777       9.721       9.651       9.583       9.490    
        9.341       9.171       9.013       8.870       8.716       8.541       8.355       8.170       7.945       7.704    
        7.525       7.371       7.108       6.837       6.638       6.418       6.150       5.908       5.702       5.524    
        5.387       5.290       5.193       5.054       4.908       4.754       4.562       4.351       4.100       3.777    
        3.436       3.119       2.608       2.080       1.726       1.469       1.221      0.9465      0.5713       0.000    
   3    10.00       9.939       9.897       9.864       9.828       9.791       9.732       9.649       9.565       9.464    
        9.329       9.178       9.026       8.882       8.698       8.480       8.299       8.138       7.932       7.719    
        7.536       7.317       7.058       6.819       6.603       6.356       6.099       5.860       5.648       5.516    
        5.403       5.310       5.213       5.059       4.906       4.742       4.552       4.316       4.036       3.789    
        3.486       3.055       2.556       2.177       1.875       1.577       1.272      0.9593      0.5415       0.000    
   4    10.00       9.939       9.902       9.872       9.848       9.808       9.740       9.644       9.545       9.445    
        9.316       9.180       9.028       8.847       8.622       8.419       8.289       8.109       7.909       7.743    
        7.493       7.215       6.987       6.775       6.565       6.270       5.986       5.795       5.650       5.536    
        5.435       5.337       5.231       5.054       4.864       4.716       4.515       4.271       4.032       3.815    
        3.471       2.996       2.619       2.299       1.975       1.636       1.269      0.9031      0.4627       0.000    
   5    10.00       9.944       9.909       9.880       9.858       9.818       9.745       9.636       9.526       9.425    
        9.316       9.176       8.981       8.770       8.579       8.419       8.257       8.088       7.901       7.668    
        7.378       7.148       6.958       6.743       6.475       6.169       5.935       5.799       5.680       5.564    
        5.448       5.328       5.208       5.037       4.844       4.664       4.484       4.292       4.074       3.787    
        3.398       3.035       2.713       2.390       2.036       1.641       1.180      0.7605      0.3938       0.000    
   6    10.00       9.953       9.920       9.891       9.861       9.816       9.739       9.621       9.525       9.417    
        9.295       9.123       8.909       8.733       8.557       8.375       8.210       8.059       7.850       7.585    
        7.327       7.108       6.914       6.649       6.358       6.126       5.936       5.808       5.676       5.557    
        5.454       5.323       5.172       4.996       4.808       4.654       4.497       4.323       4.093       3.784    
        3.443       3.092       2.762       2.436       2.052       1.575       1.078      0.7152      0.3682       0.000    
   7    10.00       9.960       9.930       9.900       9.867       9.813       9.711       9.597       9.498       9.365    
        9.239       9.056       8.862       8.681       8.500       8.316       8.155       8.017       7.777       7.495    
        7.262       7.040       6.823       6.566       6.318       6.106       5.939       5.787       5.647       5.553    
        5.447       5.303       5.143       4.965       4.803       4.666       4.521       4.341       4.106       3.824    
        3.485       3.124       2.782       2.422       2.042       1.541       1.031      0.6812      0.3224       0.000    
   8    10.00       9.967       9.940       9.907       9.870       9.783       9.658       9.551       9.426       9.299    
        9.161       8.973       8.809       8.625       8.423       8.243       8.103       7.939       7.713       7.439    
        7.169       6.964       6.784       6.520       6.263       6.074       5.885       5.721       5.625       5.534    
        5.408       5.265       5.129       4.973       4.803       4.661       4.550       4.413       4.182       3.858    
        3.486       3.165       2.845       2.426       2.002       1.443      0.9555      0.6673      0.3088       0.000    
   9    10.00       9.974       9.944       9.907       9.843       9.729       9.597       9.471       9.362       9.232    
        9.068       8.902       8.738       8.561       8.354       8.185       8.054       7.860       7.637       7.359    
        7.124       6.921       6.668       6.398       6.180       6.012       5.822       5.684       5.590       5.486    
        5.372       5.242       5.115       4.977       4.832       4.696       4.583       4.460       4.222       3.871    
        3.528       3.242       2.905       2.500       1.874       1.242      0.9104      0.5644      0.2153       0.000    
  10    10.00       9.974       9.943       9.891       9.794       9.658       9.511       9.414       9.310       9.156    
        9.013       8.849       8.686       8.495       8.303       8.151       7.976       7.775       7.540       7.314    
        7.084       6.774       6.513       6.300       6.115       5.963       5.788       5.647       5.553       5.467    
        5.346       5.206       5.092       4.965       4.836       4.743       4.631       4.488       4.215       3.867    
        3.599       3.347       2.959       2.349       1.624       1.166      0.8264      0.5046      0.2517       0.000    
  11    10.00       9.974       9.933       9.853       9.743       9.592       9.462       9.380       9.257       9.126    
        8.989       8.816       8.621       8.417       8.256       8.092       7.928       7.713       7.484       7.262    
        6.936       6.637       6.428       6.235       6.056       5.888       5.723       5.611       5.533       5.447    
        5.309       5.179       5.083       4.970       4.865       4.761       4.633       4.479       4.222       3.943    
        3.660       3.332       2.910       2.237       1.559       1.097      0.7746      0.5876      0.3246       0.000    
  12    10.00       9.972       9.915       9.812       9.669       9.519       9.415       9.334       9.226       9.108    
        8.958       8.774       8.579       8.398       8.233       8.052       7.864       7.644       7.412       7.111    
        6.789       6.561       6.355       6.159       5.962       5.794       5.678       5.593       5.493       5.384    
        5.262       5.164       5.080       4.990       4.897       4.793       4.655       4.468       4.230       3.978    
        3.674       3.317       2.739       1.983       1.405       1.080      0.8601      0.6236      0.3555       0.000    
  13    10.00       9.962       9.874       9.733       9.584       9.455       9.372       9.300       9.209       9.095    
        8.937       8.746       8.566       8.421       8.230       8.009       7.788       7.549       7.291       6.998    
        6.715       6.469       6.246       6.043       5.854       5.731       5.655       5.538       5.410       5.312    
        5.234       5.156       5.080       5.005       4.916       4.824       4.700       4.485       4.241       3.943    
        3.594       3.142       2.472       1.859       1.439       1.162      0.9044      0.6252      0.3089       0.000    
  14    10.00       9.932       9.805       9.650       9.512       9.411       9.355       9.289       9.201       9.077    
        8.903       8.740       8.592       8.440       8.226       7.964       7.727       7.457       7.169       6.864    
        6.589       6.343       6.123       5.923       5.774       5.689       5.598       5.457       5.347       5.273    
        5.216       5.143       5.079       5.008       4.928       4.854       4.709       4.489       4.230       3.858    
        3.447       2.915       2.399       1.951       1.532       1.207      0.9205      0.6259      0.2788       0.000    
  15    10.00       9.872       9.732       9.593       9.483       9.405       9.343       9.282       9.195       9.079    
        8.925       8.766       8.621       8.409       8.158       7.908       7.643       7.363       7.021       6.694    
        6.439       6.201       5.993       5.839       5.726       5.636       5.526       5.393       5.303       5.250    
        5.185       5.126       5.076       5.010       4.935       4.855       4.701       4.492       4.166       3.765    
        3.339       2.860       2.441       1.978       1.625       1.278      0.9319      0.6199      0.2543       0.000    
  16    10.00       9.851       9.699       9.573       9.477       9.406       9.343       9.286       9.202       9.082    
        8.938       8.786       8.608       8.340       8.066       7.859       7.599       7.223       6.832       6.528    
        6.263       6.064       5.894       5.762       5.639       5.557       5.435       5.327       5.258       5.197    
        5.150       5.111       5.058       4.998       4.931       4.839       4.698       4.445       4.090       3.725    
        3.360       2.898       2.426       2.018       1.685       1.320      0.9292      0.5555      0.2091       0.000    
  17    10.00       9.832       9.678       9.577       9.492       9.421       9.358       9.294       9.203       9.091    
        8.957       8.767       8.524       8.236       8.005       7.809       7.492       7.071       6.672       6.377    
        6.164       5.941       5.752       5.613       5.511       5.408       5.302       5.234       5.177       5.142    
        5.123       5.087       5.032       4.972       4.903       4.805       4.638       4.419       4.131       3.747    
        3.330       2.842       2.406       2.045       1.704       1.330      0.9489      0.5788      0.2447       0.000    
  18    10.00       9.822       9.678       9.591       9.514       9.445       9.384       9.306       9.217       9.096    
        8.936       8.712       8.441       8.197       7.971       7.683       7.316       6.931       6.579       6.288    
        6.026       5.739       5.576       5.460       5.370       5.255       5.186       5.127       5.090       5.090    
        5.080       5.049       4.995       4.928       4.856       4.752       4.592       4.412       4.163       3.809    
        3.267       2.747       2.391       2.047       1.757       1.364      0.9435      0.5674      0.2444       0.000    
  19    10.00       9.830       9.710       9.620       9.539       9.469       9.397       9.325       9.243       9.104    
        8.914       8.675       8.407       8.136       7.837       7.525       7.185       6.812       6.458       6.150    
        5.845       5.593       5.462       5.372       5.246       5.143       5.085       5.032       5.021       5.021    
        5.022       5.001       4.938       4.876       4.816       4.735       4.583       4.387       4.135       3.720    
        3.174       2.732       2.377       2.039       1.714       1.308      0.9061      0.5639      0.2657       0.000    
  20    10.00       9.839       9.737       9.658       9.580       9.498       9.412       9.335       9.252       9.111    
        8.905       8.657       8.345       7.992       7.649       7.394       7.051       6.650       6.338       6.031    
        5.759       5.550       5.391       5.254       5.095       5.022       4.983       4.956       4.959       4.958    
        4.960       4.931       4.879       4.840       4.789       4.705       4.532       4.334       4.046       3.580    
        3.110       2.757       2.346       1.961       1.606       1.207      0.9087      0.5599      0.2483       0.000    
  21    10.00       9.863       9.771       9.691       9.605       9.527       9.433       9.349       9.259       9.100    
        8.879       8.576       8.188       7.774       7.454       7.220       6.897       6.603       6.310       5.978    
        5.718       5.488       5.288       5.030       4.898       4.860       4.804       4.840       4.872       4.869    
        4.865       4.836       4.820       4.798       4.754       4.640       4.468       4.295       3.877       3.392    
        3.042       2.661       2.242       1.884       1.508       1.158      0.8227      0.4933      0.2478       0.000    
  22    10.00       9.892       9.796       9.709       9.626       9.552       9.445       9.336       9.232       9.069    
        8.798       8.417       7.979       7.590       7.314       7.069       6.822       6.609       6.287       5.961    
        5.688       5.360       5.002       4.731       4.631       4.534       4.547       4.649       4.690       4.711    
        4.729       4.725       4.743       4.750       4.708       4.587       4.413       4.094       3.619       3.309    
        2.932       2.522       2.146       1.801       1.481       1.066      0.7139      0.4729      0.2658       0.000    
  23    10.00       9.894       9.801       9.723       9.635       9.537       9.416       9.318       9.226       9.020    
        8.689       8.279       7.878       7.538       7.255       7.048       6.815       6.536       6.227       5.967    
        5.588       5.106       4.723       4.446       4.042       4.043       4.260       4.382       4.471       4.556    
        4.595       4.626       4.659       4.682       4.643       4.520       4.265       3.896       3.507       3.127    
        2.768       2.429       2.067       1.795       1.390      0.9690      0.6944      0.4547      0.2361       0.000    
  24    10.00       9.917       9.812       9.709       9.608       9.496       9.387       9.303       9.200       8.957    
        8.580       8.192       7.860       7.564       7.294       7.022       6.736       6.483       6.237       5.932    
        5.479       5.000       4.545       3.712       2.822       3.342       3.842       4.134       4.297       4.432    
        4.504       4.550       4.593       4.599       4.556       4.399       4.113       3.808       3.380       2.976    
        2.695       2.369       2.026       1.678       1.244      0.8990      0.6679      0.4259      0.1879       0.000    
  25    10.00       9.910       9.788       9.662       9.544       9.442       9.359       9.274       9.148       8.896    
        8.500       8.138       7.883       7.607       7.295       7.013       6.745       6.523       6.296       5.904    
        5.384       4.913       4.184       2.830     -1.4800E-03   2.732       3.521       3.982       4.224       4.365    
        4.448       4.503       4.539       4.531       4.474       4.301       3.997       3.641       3.293       2.949    
        2.628       2.275       1.886       1.519       1.107      0.8255      0.6651      0.4140      0.1534       0.000    
  26    10.00       9.887       9.731       9.589       9.494       9.412       9.329       9.225       9.076       8.764    
        8.395       8.142       7.897       7.622       7.330       7.059       6.807       6.588       6.302       5.885    
        5.428       4.909       4.271       3.540       2.867       3.224       3.694       4.019       4.216       4.345    
        4.424       4.480       4.498       4.477       4.396       4.189       3.851       3.564       3.285       2.915    
        2.582       2.183       1.736       1.342       1.006      0.8078      0.6290      0.3689      0.1570       0.000    
  27    10.00       9.862       9.695       9.563       9.483       9.375       9.267       9.135       8.934       8.637    
        8.376       8.151       7.903       7.634       7.347       7.133       6.960       6.664       6.304       5.879    
        5.491       5.115       4.603       4.123       3.743       3.803       3.984       4.143       4.268       4.359    
        4.440       4.483       4.483       4.439       4.328       4.091       3.824       3.572       3.247       2.901    
        2.556       2.075       1.564       1.194      0.9602      0.7946      0.5981      0.3900      0.1880       0.000    
  28    10.00       9.844       9.722       9.574       9.437       9.304       9.184       9.028       8.826       8.596    
        8.380       8.179       7.933       7.633       7.378       7.206       7.013       6.687       6.269       5.894    
        5.620       5.340       4.939       4.566       4.326       4.247       4.241       4.290       4.369       4.442    
        4.490       4.498       4.481       4.413       4.268       4.054       3.841       3.545       3.208       2.860    
        2.439       1.987       1.480       1.113      0.9496      0.7913      0.6165      0.4072      0.1888       0.000    
  29    10.00       9.849       9.697       9.540       9.376       9.248       9.111       8.938       8.767       8.584    
        8.391       8.192       7.952       7.698       7.481       7.278       7.020       6.658       6.277       5.985    
        5.753       5.507       5.179       4.848       4.652       4.545       4.478       4.475       4.510       4.531    
        4.531       4.518       4.480       4.388       4.224       4.041       3.844       3.569       3.196       2.755    
        2.371       1.890       1.384       1.097      0.9525      0.7968      0.6118      0.3978      0.1978       0.000    
  30    10.00       9.827       9.673       9.485       9.318       9.200       9.054       8.901       8.769       8.605    
        8.407       8.191       7.972       7.770       7.576       7.347       7.019       6.681       6.377       6.101    
        5.902       5.660       5.362       5.075       4.839       4.742       4.678       4.651       4.625       4.599    
        4.570       4.539       4.479       4.359       4.210       4.066       3.870       3.516       3.055       2.606    
        2.218       1.777       1.392       1.126      0.9741      0.7985      0.6009      0.4169      0.2045       0.000    
  31    10.00       9.804       9.626       9.446       9.295       9.173       9.034       8.899       8.768       8.607    
        8.410       8.193       8.003       7.836       7.653       7.395       7.071       6.779       6.540       6.297    
        6.085       5.813       5.520       5.278       5.037       4.880       4.814       4.750       4.702       4.651    
        4.610       4.555       4.472       4.355       4.212       4.052       3.741       3.346       2.964       2.527    
        2.160       1.721       1.347       1.155      0.9921      0.8268      0.6212      0.4174      0.1978       0.000    
  32    10.00       9.789       9.598       9.443       9.316       9.194       9.049       8.894       8.735       8.583    
        8.389       8.200       8.032       7.846       7.676       7.456       7.206       6.987       6.743       6.492    
        6.280       6.025       5.730       5.471       5.221       4.998       4.910       4.827       4.759       4.686    
        4.629       4.576       4.465       4.321       4.188       3.965       3.581       3.211       2.875       2.478    
        2.051       1.642       1.368       1.220       1.043      0.8338      0.6164      0.3965      0.1978       0.000    
  33    10.00       9.782       9.618       9.494       9.367       9.225       9.051       8.879       8.708       8.533    
        8.372       8.213       8.046       7.870       7.681       7.511       7.328       7.142       6.942       6.697    
        6.449       6.211       5.964       5.662       5.354       5.102       4.971       4.888       4.802       4.712    
        4.645       4.566       4.446       4.309       4.114       3.807       3.415       3.103       2.781       2.319    
        1.932       1.666       1.448       1.273       1.070      0.8501      0.5838      0.3488      0.1571       0.000    
  34    10.00       9.801       9.667       9.551       9.409       9.235       9.051       8.850       8.661       8.515    
        8.370       8.225       8.075       7.893       7.726       7.562       7.403       7.256       7.065       6.815    
        6.582       6.366       6.122       5.808       5.469       5.187       5.020       4.920       4.825       4.723    
        4.635       4.548       4.430       4.257       4.020       3.641       3.260       2.982       2.601       2.194    
        1.957       1.782       1.573       1.347       1.080      0.7709      0.4717      0.2792      0.1158       0.000    
  35    10.00       9.834       9.713       9.595       9.444       9.247       9.037       8.813       8.633       8.508    
        8.412       8.266       8.099       7.905       7.728       7.611       7.495       7.343       7.145       6.908    
        6.686       6.473       6.247       5.893       5.509       5.239       5.056       4.943       4.833       4.716    
        4.629       4.527       4.387       4.159       3.787       3.394       3.143       2.855       2.468       2.225    
        2.060       1.861       1.651       1.430       1.093      0.6554      0.3622      0.2381      0.1208       0.000    
  36    10.00       9.853       9.748       9.635       9.474       9.241       8.984       8.773       8.645       8.548    
        8.417       8.250       8.097       7.925       7.770       7.654       7.543       7.408       7.252       7.033    
        6.802       6.578       6.298       5.916       5.538       5.264       5.090       4.957       4.819       4.704    
        4.602       4.473       4.247       3.905       3.566       3.299       3.065       2.765       2.458       2.298    
        2.131       1.953       1.741       1.456      0.9965      0.5518      0.3401      0.2176      0.1118       0.000    
  37    10.00       9.869       9.788       9.665       9.450       9.195       8.968       8.804       8.698       8.582    
        8.411       8.234       8.101       7.953       7.808       7.697       7.595       7.470       7.305       7.114    
        6.925       6.680       6.329       5.967       5.605       5.296       5.085       4.917       4.789       4.669    
        4.543       4.351       4.011       3.703       3.469       3.239       2.999       2.764       2.546       2.368    
        2.207       2.007       1.766       1.392      0.9130      0.5319      0.3185      0.2024      0.1015       0.000    
  38    10.00       9.888       9.790       9.656       9.434       9.170       8.978       8.856       8.746       8.609    
        8.428       8.242       8.112       7.975       7.831       7.720       7.631       7.522       7.359       7.194    
        7.020       6.736       6.336       5.942       5.582       5.277       5.046       4.858       4.733       4.621    
        4.452       4.133       3.836       3.646       3.415       3.189       3.017       2.820       2.622       2.451    
        2.261       1.989       1.683       1.277      0.8019      0.5095      0.3584      0.2233      0.1002       0.000    
  39    10.00       9.887       9.775       9.635       9.420       9.181       9.008       8.900       8.764       8.613    
        8.466       8.279       8.129       8.000       7.861       7.743       7.642       7.535       7.404       7.254    
        7.049       6.743       6.326       5.884       5.512       5.227       4.963       4.770       4.676       4.565    
        4.300       3.975       3.794       3.578       3.364       3.205       3.063       2.884       2.692       2.532    
        2.258       1.872       1.513       1.074      0.7151      0.5518      0.4108      0.2675      0.1376       0.000    
  40    10.00       9.878       9.780       9.637       9.439       9.238       9.070       8.926       8.766       8.627    
        8.517       8.334       8.146       8.014       7.886       7.752       7.640       7.556       7.441       7.259    
        7.021       6.666       6.241       5.825       5.447       5.148       4.848       4.698       4.613       4.464    
        4.225       3.988       3.743       3.521       3.372       3.236       3.101       2.935       2.758       2.548    
        2.177       1.757       1.368       1.013      0.7670      0.5989      0.4584      0.3235      0.1589       0.000    
  41    10.00       9.894       9.816       9.677       9.473       9.264       9.103       8.974       8.817       8.652    
        8.520       8.353       8.178       8.054       7.905       7.744       7.649       7.557       7.406       7.205    
        6.958       6.610       6.183       5.778       5.401       5.001       4.724       4.645       4.552       4.442    
        4.255       3.968       3.725       3.550       3.403       3.282       3.134       2.975       2.792       2.465    
        2.031       1.622       1.284       1.023      0.8100      0.6540      0.5038      0.3559      0.1874       0.000    
  42    10.00       9.921       9.834       9.700       9.524       9.325       9.143       9.010       8.868       8.685    
        8.516       8.356       8.207       8.089       7.931       7.761       7.645       7.519       7.353       7.124    
        6.838       6.457       6.083       5.680       5.188       4.835       4.695       4.631       4.552       4.435    
        4.216       3.966       3.740       3.564       3.446       3.317       3.187       3.015       2.723       2.290    
        1.911       1.606       1.313       1.018      0.8203      0.6877      0.5437      0.3705      0.2056       0.000    
  43    10.00       9.937       9.844       9.706       9.532       9.367       9.205       9.056       8.879       8.689    
        8.535       8.373       8.226       8.116       7.968       7.775       7.621       7.476       7.249       6.956    
        6.677       6.310       5.966       5.503       5.041       4.812       4.702       4.629       4.554       4.431    
        4.223       3.996       3.779       3.608       3.495       3.368       3.197       2.951       2.525       2.141    
        1.905       1.636       1.327       1.021      0.8121      0.6894      0.5784      0.4007      0.1878       0.000    
  44    10.00       9.930       9.851       9.707       9.549       9.429       9.265       9.063       8.862       8.704    
        8.549       8.386       8.257       8.141       7.968       7.761       7.583       7.410       7.142       6.850    
        6.517       6.151       5.785       5.324       4.979       4.810       4.717       4.654       4.572       4.417    
        4.205       4.024       3.833       3.675       3.559       3.384       3.156       2.805       2.373       2.119    
        1.903       1.622       1.314       1.035      0.8219      0.6914      0.5788      0.3925      0.1729       0.000    
  45    10.00       9.916       9.820       9.704       9.589       9.435       9.262       9.068       8.869       8.710    
        8.549       8.402       8.288       8.154       7.964       7.743       7.543       7.346       7.056       6.713    
        6.331       5.945       5.552       5.214       4.978       4.835       4.745       4.678       4.574       4.447    
        4.265       4.059       3.888       3.726       3.560       3.374       3.125       2.751       2.377       2.081    
        1.835       1.570       1.283       1.033      0.8477      0.7394      0.5713      0.3401      0.1550       0.000    
  46    10.00       9.898       9.798       9.706       9.575       9.399       9.231       9.072       8.876       8.705    
        8.563       8.426       8.311       8.150       7.947       7.749       7.538       7.280       6.967       6.595    
        6.147       5.764       5.451       5.196       5.016       4.891       4.779       4.689       4.607       4.466    
        4.271       4.093       3.926       3.738       3.574       3.397       3.117       2.685       2.293       2.030    
        1.799       1.545       1.275       1.057      0.9126      0.7732      0.5181      0.2547      0.1107       0.000    
  47    10.00       9.892       9.790       9.662       9.510       9.365       9.221       9.049       8.870       8.718    
        8.587       8.465       8.302       8.128       7.945       7.753       7.519       7.220       6.928       6.476    
        5.991       5.693       5.424       5.224       5.057       4.934       4.822       4.712       4.617       4.471    
        4.268       4.091       3.922       3.745       3.603       3.390       3.001       2.614       2.286       2.006    
        1.804       1.564       1.324       1.113      0.9347      0.7094      0.4263      0.2228      9.2785E-02   0.000    
  48    10.00       9.879       9.758       9.621       9.483       9.354       9.208       9.051       8.885       8.735    
        8.602       8.458       8.280       8.101       7.922       7.731       7.507       7.225       6.862       6.414    
        5.995       5.690       5.429       5.246       5.110       4.959       4.845       4.753       4.635       4.436    
        4.237       4.065       3.910       3.779       3.592       3.310       2.940       2.592       2.282       2.035    
        1.817       1.589       1.373       1.134      0.8668      0.5764      0.3643      0.2161      9.7622E-02   0.000    
  49    10.00       9.868       9.736       9.602       9.489       9.356       9.201       9.046       8.912       8.757    
        8.597       8.416       8.241       8.090       7.886       7.700       7.514       7.199       6.840       6.483    
        6.042       5.702       5.442       5.282       5.122       4.959       4.871       4.783       4.594       4.355    
        4.184       4.046       3.934       3.764       3.547       3.296       2.925       2.578       2.335       2.073    
        1.816       1.607       1.376       1.095      0.7674      0.5139      0.3644      0.2352      0.1207       0.000    
  50    10.00       9.873       9.741       9.605       9.481       9.350       9.212       9.060       8.919       8.780    
        8.584       8.395       8.234       8.032       7.825       7.683       7.506       7.262       6.906       6.553    
        6.104       5.676       5.450       5.287       5.120       4.987       4.882       4.763       4.540       4.313    
        4.172       4.058       3.927       3.751       3.550       3.310       2.935       2.580       2.343       2.107    
        1.863       1.599       1.339       1.038      0.7154      0.5259      0.3921      0.2657      0.1603       0.000    

 HEAD WILL BE SAVED ON UNIT   51 AT END OF TIME STEP  47, STRESS PERIOD    2

 DRAWDOWN WILL BE SAVED ON UNIT   52 AT END OF TIME STEP  47, STRESS PERIOD    2
1
  VOLUMETRIC BUDGET FOR ENTIRE MODEL AT END OF TIME STEP 47 IN STRESS PERIOD   2
  ------------------------------------------------------------------------------

     CUMULATIVE VOLUMES      L**3       RATES FOR THIS TIME STEP      L**3/T
     ------------------                 ------------------------

           IN:                                      IN:
           ---                                      ---
             STORAGE =       23325.9297               STORAGE =         484.7641
       CONSTANT HEAD =       18041.4531         CONSTANT HEAD =         386.4267
               WELLS =           0.0000                 WELLS =           0.0000

            TOTAL IN =       41367.3828              TOTAL IN =         871.1908

          OUT:                                     OUT:
          ----                                     ----
             STORAGE =       1.1143E-02               STORAGE =           0.0000
       CONSTANT HEAD =       17867.3711         CONSTANT HEAD =         371.1906
               WELLS =       23500.0000                 WELLS =         500.0000

           TOTAL OUT =       41367.3828             TOTAL OUT =         871.1907

            IN - OUT =           0.0000              IN - OUT =       1.2207E-04

 PERCENT DISCREPANCY =           0.00     PERCENT DISCREPANCY =           0.00






          TIME SUMMARY AT END OF TIME STEP  47 IN STRESS PERIOD    2
                    SECONDS     MINUTES      HOURS       DAYS        YEARS
                    -----------------------------------------------------------
   TIME STEP LENGTH  86400.      1440.0      24.000      1.0000     2.73785E-03
 STRESS PERIOD TIME 4.06080E+06  67680.      1128.0      47.000     0.12868    
         TOTAL TIME 4.14720E+06  69120.      1152.0      48.000     0.13142    
1
 
 SOLVING FOR HEAD 

 OUTPUT CONTROL FOR STRESS PERIOD    2   TIME STEP  48
    SAVE HEAD FOR ALL LAYERS
    SAVE DRAWDOWN FOR ALL LAYERS
    SAVE BUDGET
    PRINT HEAD FOR ALL LAYERS
    PRINT BUDGET
 UBDSV1 SAVING "         STORAGE" ON UNIT  53 AT TIME STEP 48, STRESS PERIOD   2
 UBDSV2 SAVING "   CONSTANT HEAD" ON UNIT  53 AT TIME STEP 48, STRESS PERIOD   2
 UBDSV1 SAVING "FLOW RIGHT FACE " ON UNIT  53 AT TIME STEP 48, STRESS PERIOD   2
 UBDSV1 SAVING "FLOW FRONT FACE " ON UNIT  53 AT TIME STEP 48, STRESS PERIOD   2
1
              HEAD IN LAYER   1 AT END OF TIME STEP  48 IN STRESS PERIOD    2
  ---------------------------------------------------------------------------

            1           2           3           4           5           6           7           8           9          10
           11          12          13          14          15          16          17          18          19          20
           21          22          23          24          25          26          27          28          29          30
           31          32          33          34          35          36          37          38          39          40
           41          42          43          44          45          46          47          48          49          50
 ........................................................................................................................
   1    10.00       9.952       9.905       9.849       9.805       9.768       9.719       9.650       9.575       9.506    
        9.354       9.163       9.022       8.866       8.699       8.530       8.373       8.192       7.951       7.711    
        7.547       7.360       7.113       6.862       6.638       6.443       6.165       5.911       5.732       5.544    
        5.381       5.276       5.162       5.032       4.907       4.752       4.585       4.359       4.101       3.818    
        3.453       3.082       2.595       2.064       1.664       1.377       1.162      0.9161      0.5378       0.000    
   2    10.00       9.947       9.897       9.849       9.812       9.776       9.721       9.651       9.582       9.489    
        9.340       9.170       9.012       8.869       8.714       8.540       8.354       8.168       7.943       7.701    
        7.523       7.369       7.105       6.834       6.635       6.414       6.146       5.904       5.698       5.520    
        5.383       5.286       5.189       5.050       4.904       4.750       4.559       4.348       4.098       3.775    
        3.434       3.118       2.607       2.079       1.725       1.469       1.221      0.9462      0.5712       0.000    
   3    10.00       9.939       9.897       9.864       9.828       9.791       9.732       9.648       9.565       9.464    
        9.328       9.177       9.025       8.881       8.697       8.479       8.297       8.136       7.930       7.717    
        7.534       7.315       7.055       6.816       6.599       6.352       6.095       5.856       5.644       5.511    
        5.399       5.306       5.209       5.056       4.902       4.738       4.549       4.313       4.034       3.787    
        3.484       3.054       2.555       2.176       1.875       1.576       1.271      0.9590      0.5414       0.000    
   4    10.00       9.939       9.902       9.872       9.847       9.808       9.740       9.644       9.545       9.444    
        9.315       9.179       9.027       8.846       8.620       8.418       8.287       8.107       7.907       7.741    
        7.490       7.212       6.984       6.771       6.562       6.266       5.981       5.790       5.646       5.532    
        5.430       5.332       5.227       5.050       4.860       4.712       4.512       4.268       4.029       3.812    
        3.469       2.994       2.618       2.298       1.974       1.636       1.268      0.9028      0.4626       0.000    
   5    10.00       9.944       9.909       9.880       9.858       9.817       9.745       9.636       9.525       9.425    
        9.315       9.175       8.980       8.768       8.577       8.417       8.255       8.086       7.899       7.665    
        7.374       7.145       6.955       6.739       6.471       6.165       5.930       5.794       5.675       5.559    
        5.443       5.323       5.203       5.033       4.840       4.660       4.480       4.288       4.071       3.785    
        3.396       3.034       2.711       2.389       2.035       1.640       1.179      0.7603      0.3937       0.000    
   6    10.00       9.953       9.920       9.891       9.861       9.816       9.739       9.621       9.525       9.417    
        9.294       9.121       8.907       8.731       8.555       8.372       8.207       8.057       7.847       7.582    
        7.324       7.104       6.910       6.644       6.353       6.121       5.930       5.803       5.671       5.552    
        5.449       5.318       5.167       4.991       4.804       4.650       4.493       4.319       4.090       3.781    
        3.440       3.090       2.761       2.435       2.051       1.574       1.078      0.7150      0.3681       0.000    
   7    10.00       9.960       9.930       9.900       9.867       9.813       9.710       9.597       9.497       9.364    
        9.238       9.054       8.860       8.679       8.498       8.313       8.152       8.014       7.774       7.491    
        7.258       7.035       6.818       6.560       6.312       6.100       5.933       5.781       5.641       5.547    
        5.442       5.297       5.138       4.960       4.798       4.661       4.516       4.337       4.102       3.821    
        3.482       3.122       2.780       2.421       2.041       1.541       1.031      0.6810      0.3223       0.000    
   8    10.00       9.966       9.940       9.907       9.869       9.783       9.657       9.550       9.425       9.298    
        9.159       8.971       8.807       8.622       8.420       8.239       8.100       7.935       7.709       7.434    
        7.164       6.959       6.779       6.514       6.256       6.067       5.879       5.715       5.618       5.527    
        5.402       5.258       5.123       4.967       4.797       4.655       4.545       4.408       4.178       3.854    
        3.483       3.163       2.843       2.424       2.001       1.442      0.9551      0.6671      0.3087       0.000    
   9    10.00       9.973       9.944       9.907       9.843       9.729       9.596       9.470       9.361       9.230    
        9.066       8.900       8.735       8.559       8.350       8.181       8.050       7.856       7.633       7.353    
        7.118       6.915       6.661       6.390       6.172       6.004       5.815       5.676       5.582       5.479    
        5.364       5.235       5.107       4.970       4.825       4.690       4.577       4.455       4.217       3.867    
        3.525       3.240       2.903       2.499       1.873       1.242      0.9100      0.5642      0.2152       0.000    
  10    10.00       9.974       9.943       9.891       9.793       9.658       9.510       9.413       9.309       9.155    
        9.011       8.846       8.683       8.492       8.300       8.147       7.971       7.770       7.534       7.308    
        7.078       6.767       6.505       6.292       6.107       5.954       5.780       5.638       5.544       5.458    
        5.337       5.198       5.084       4.958       4.829       4.736       4.624       4.483       4.210       3.863    
        3.595       3.344       2.957       2.348       1.624       1.166      0.8260      0.5044      0.2516       0.000    
  11    10.00       9.974       9.933       9.853       9.743       9.591       9.461       9.379       9.255       9.124    
        8.987       8.813       8.618       8.413       8.252       8.087       7.923       7.707       7.478       7.255    
        6.928       6.628       6.419       6.226       6.047       5.878       5.713       5.602       5.523       5.438    
        5.301       5.170       5.075       4.962       4.857       4.754       4.627       4.473       4.217       3.938    
        3.656       3.329       2.907       2.236       1.558       1.096      0.7742      0.5873      0.3244       0.000    
  12    10.00       9.972       9.914       9.812       9.668       9.518       9.414       9.332       9.225       9.106    
        8.955       8.771       8.575       8.394       8.228       8.048       7.858       7.638       7.405       7.103    
        6.780       6.552       6.346       6.150       5.952       5.784       5.668       5.583       5.483       5.374    
        5.252       5.155       5.071       4.981       4.889       4.785       4.648       4.461       4.224       3.973    
        3.671       3.314       2.737       1.981       1.405       1.080      0.8597      0.6233      0.3553       0.000    
  13    10.00       9.962       9.873       9.733       9.583       9.454       9.371       9.299       9.207       9.093    
        8.934       8.743       8.562       8.417       8.226       8.003       7.782       7.543       7.284       6.989    
        6.706       6.459       6.236       6.032       5.843       5.720       5.644       5.528       5.399       5.302    
        5.223       5.146       5.071       4.996       4.908       4.816       4.692       4.478       4.235       3.938    
        3.590       3.139       2.470       1.858       1.438       1.161      0.9039      0.6250      0.3088       0.000    
  14    10.00       9.931       9.804       9.649       9.511       9.409       9.353       9.287       9.199       9.074    
        8.900       8.736       8.588       8.436       8.221       7.958       7.720       7.449       7.161       6.854    
        6.579       6.333       6.111       5.911       5.762       5.678       5.586       5.445       5.336       5.262    
        5.205       5.133       5.069       4.998       4.919       4.845       4.700       4.481       4.224       3.853    
        3.444       2.912       2.397       1.950       1.531       1.206      0.9200      0.6256      0.2786       0.000    
  15    10.00       9.872       9.731       9.592       9.481       9.403       9.342       9.280       9.193       9.076    
        8.922       8.763       8.617       8.404       8.152       7.901       7.636       7.355       7.011       6.683    
        6.428       6.189       5.981       5.827       5.714       5.624       5.514       5.381       5.291       5.238    
        5.174       5.115       5.066       4.999       4.925       4.845       4.692       4.484       4.160       3.760    
        3.335       2.857       2.439       1.977       1.624       1.277      0.9315      0.6196      0.2542       0.000    
  16    10.00       9.851       9.698       9.571       9.476       9.405       9.341       9.284       9.200       9.079    
        8.935       8.782       8.603       8.335       8.060       7.851       7.590       7.214       6.821       6.516    
        6.251       6.051       5.881       5.750       5.626       5.544       5.423       5.315       5.245       5.185    
        5.138       5.100       5.047       4.987       4.920       4.829       4.689       4.437       4.084       3.720    
        3.356       2.895       2.424       2.017       1.684       1.319      0.9288      0.5553      0.2090       0.000    
  17    10.00       9.831       9.678       9.576       9.491       9.419       9.357       9.292       9.201       9.089    
        8.954       8.763       8.519       8.229       7.998       7.800       7.483       7.060       6.660       6.365    
        6.151       5.927       5.738       5.600       5.497       5.395       5.289       5.220       5.163       5.129    
        5.110       5.075       5.021       4.961       4.892       4.795       4.629       4.410       4.124       3.742    
        3.326       2.839       2.404       2.044       1.703       1.329      0.9485      0.5786      0.2446       0.000    
  18    10.00       9.822       9.677       9.590       9.513       9.444       9.382       9.304       9.214       9.093    
        8.932       8.707       8.435       8.190       7.963       7.674       7.305       6.919       6.566       6.275    
        6.012       5.725       5.561       5.445       5.356       5.240       5.171       5.113       5.076       5.077    
        5.067       5.036       4.983       4.916       4.845       4.741       4.582       4.404       4.156       3.803    
        3.263       2.744       2.389       2.046       1.756       1.363      0.9431      0.5672      0.2443       0.000    
  19    10.00       9.829       9.709       9.619       9.537       9.468       9.395       9.323       9.240       9.101    
        8.911       8.670       8.401       8.128       7.829       7.515       7.173       6.800       6.445       6.136    
        5.830       5.579       5.447       5.357       5.231       5.128       5.070       5.018       5.007       5.007    
        5.008       4.988       4.926       4.863       4.804       4.724       4.573       4.378       4.127       3.714    
        3.170       2.729       2.375       2.038       1.713       1.307      0.9058      0.5637      0.2656       0.000    
  20    10.00       9.839       9.736       9.657       9.578       9.496       9.410       9.332       9.249       9.108    
        8.901       8.652       8.339       7.984       7.640       7.384       7.039       6.637       6.324       6.017    
        5.744       5.535       5.376       5.239       5.079       5.007       4.968       4.941       4.944       4.943    
        4.946       4.917       4.865       4.827       4.777       4.694       4.522       4.325       4.038       3.575    
        3.106       2.754       2.344       1.960       1.606       1.206      0.9084      0.5598      0.2482       0.000    
  21    10.00       9.862       9.770       9.690       9.604       9.525       9.431       9.347       9.256       9.097    
        8.875       8.570       8.180       7.765       7.443       7.209       6.884       6.590       6.296       5.963    
        5.703       5.473       5.273       5.015       4.882       4.845       4.788       4.824       4.857       4.854    
        4.850       4.821       4.806       4.784       4.742       4.628       4.458       4.286       3.870       3.388    
        3.038       2.659       2.240       1.882       1.507       1.158      0.8225      0.4931      0.2477       0.000    
  22    10.00       9.892       9.795       9.708       9.625       9.551       9.443       9.334       9.229       9.065    
        8.794       8.410       7.970       7.579       7.302       7.057       6.809       6.596       6.272       5.946    
        5.673       5.344       4.986       4.715       4.615       4.517       4.531       4.633       4.674       4.695    
        4.713       4.710       4.727       4.735       4.695       4.575       4.402       4.086       3.613       3.304    
        2.929       2.520       2.144       1.800       1.480       1.066      0.7137      0.4728      0.2658       0.000    
  23    10.00       9.893       9.800       9.722       9.634       9.536       9.414       9.315       9.224       9.016    
        8.684       8.271       7.869       7.528       7.244       7.036       6.802       6.522       6.212       5.952    
        5.572       5.090       4.706       4.430       4.025       4.026       4.243       4.365       4.454       4.540    
        4.579       4.610       4.643       4.667       4.628       4.508       4.255       3.888       3.501       3.123    
        2.765       2.427       2.066       1.794       1.390      0.9687      0.6942      0.4546      0.2360       0.000    
  24    10.00       9.917       9.811       9.708       9.607       9.494       9.385       9.300       9.197       8.953    
        8.574       8.185       7.851       7.553       7.282       7.010       6.723       6.469       6.223       5.917    
        5.463       4.984       4.528       3.695       2.804       3.325       3.825       4.117       4.280       4.414    
        4.487       4.533       4.576       4.583       4.541       4.386       4.103       3.800       3.375       2.972    
        2.692       2.367       2.025       1.677       1.244      0.8987      0.6677      0.4258      0.1879       0.000    
  25    10.00       9.909       9.787       9.661       9.543       9.440       9.357       9.272       9.144       8.891    
        8.493       8.130       7.874       7.597       7.283       7.000       6.732       6.509       6.281       5.888    
        5.368       4.896       4.167       2.812     -2.0492E-02   2.714       3.503       3.964       4.207       4.347    
        4.431       4.486       4.522       4.515       4.459       4.288       3.987       3.633       3.287       2.945    
        2.625       2.273       1.884       1.518       1.106      0.8252      0.6649      0.4139      0.1534       0.000    
  26    10.00       9.886       9.730       9.588       9.492       9.410       9.327       9.222       9.072       8.759    
        8.388       8.134       7.888       7.612       7.318       7.046       6.794       6.574       6.287       5.870    
        5.412       4.892       4.254       3.522       2.849       3.206       3.676       4.001       4.199       4.328    
        4.406       4.463       4.482       4.461       4.381       4.176       3.842       3.557       3.279       2.911    
        2.579       2.181       1.735       1.341       1.006      0.8075      0.6288      0.3688      0.1570       0.000    
  27    10.00       9.861       9.694       9.562       9.481       9.373       9.264       9.132       8.930       8.632    
        8.369       8.144       7.894       7.624       7.336       7.121       6.947       6.651       6.290       5.864    
        5.475       5.099       4.587       4.106       3.726       3.786       3.966       4.125       4.251       4.342    
        4.422       4.466       4.467       4.423       4.314       4.079       3.814       3.564       3.241       2.896    
        2.553       2.073       1.563       1.194      0.9598      0.7942      0.5979      0.3898      0.1880       0.000    
  28    10.00       9.843       9.721       9.572       9.435       9.302       9.181       9.024       8.822       8.591    
        8.374       8.172       7.925       7.623       7.368       7.195       7.001       6.674       6.255       5.879    
        5.605       5.324       4.922       4.549       4.308       4.229       4.224       4.273       4.352       4.425    
        4.473       4.482       4.465       4.398       4.255       4.043       3.831       3.537       3.202       2.855    
        2.436       1.985       1.479       1.113      0.9491      0.7909      0.6163      0.4071      0.1887       0.000    
  29    10.00       9.848       9.696       9.539       9.374       9.245       9.108       8.934       8.763       8.579    
        8.385       8.185       7.944       7.689       7.471       7.267       7.008       6.645       6.263       5.970    
        5.738       5.492       5.163       4.831       4.635       4.528       4.460       4.457       4.493       4.514    
        4.514       4.502       4.464       4.373       4.211       4.030       3.834       3.561       3.189       2.751    
        2.368       1.888       1.383       1.096      0.9520      0.7964      0.6115      0.3976      0.1977       0.000    
  30    10.00       9.826       9.672       9.483       9.316       9.198       9.051       8.897       8.765       8.600    
        8.401       8.184       7.964       7.761       7.567       7.336       7.007       6.669       6.363       6.087    
        5.887       5.645       5.346       5.059       4.822       4.726       4.662       4.634       4.609       4.583    
        4.554       4.523       4.464       4.345       4.197       4.055       3.860       3.508       3.050       2.602    
        2.215       1.775       1.391       1.126      0.9736      0.7981      0.6007      0.4167      0.2044       0.000    
  31    10.00       9.803       9.625       9.444       9.293       9.170       9.031       8.895       8.763       8.602    
        8.405       8.186       7.996       7.828       7.645       7.385       7.060       6.767       6.528       6.283    
        6.071       5.799       5.504       5.262       5.021       4.864       4.798       4.734       4.686       4.635    
        4.595       4.540       4.457       4.342       4.200       4.041       3.732       3.339       2.959       2.524    
        2.158       1.720       1.346       1.154      0.9915      0.8263      0.6209      0.4172      0.1977       0.000    
  32    10.00       9.788       9.596       9.441       9.314       9.191       9.046       8.891       8.731       8.578    
        8.383       8.194       8.025       7.839       7.668       7.447       7.196       6.976       6.731       6.479    
        6.266       6.011       5.715       5.456       5.205       4.982       4.894       4.812       4.744       4.671    
        4.614       4.561       4.451       4.309       4.176       3.955       3.573       3.205       2.871       2.474    
        2.049       1.641       1.367       1.220       1.042      0.8334      0.6161      0.3963      0.1977       0.000    
  33    10.00       9.781       9.617       9.493       9.365       9.223       9.048       8.875       8.704       8.529    
        8.366       8.207       8.040       7.863       7.673       7.502       7.318       7.132       6.931       6.685    
        6.437       6.198       5.950       5.648       5.339       5.087       4.956       4.873       4.788       4.698    
        4.631       4.553       4.433       4.297       4.103       3.798       3.408       3.098       2.777       2.316    
        1.930       1.665       1.447       1.272       1.069      0.8496      0.5835      0.3486      0.1571       0.000    
  34    10.00       9.801       9.666       9.549       9.408       9.233       9.048       8.846       8.657       8.510    
        8.365       8.220       8.069       7.886       7.719       7.553       7.395       7.246       7.055       6.804    
        6.570       6.354       6.109       5.794       5.455       5.173       5.005       4.906       4.811       4.710    
        4.622       4.536       4.418       4.246       4.010       3.633       3.255       2.978       2.598       2.192    
        1.956       1.781       1.572       1.346       1.079      0.7705      0.4714      0.2791      0.1157       0.000    
  35    10.00       9.833       9.712       9.594       9.442       9.245       9.034       8.809       8.629       8.504    
        8.407       8.261       8.093       7.898       7.720       7.603       7.487       7.334       7.136       6.898    
        6.675       6.461       6.235       5.881       5.496       5.225       5.043       4.930       4.820       4.704    
        4.616       4.515       4.376       4.149       3.780       3.389       3.138       2.852       2.465       2.223    
        2.058       1.860       1.650       1.429       1.092      0.6551      0.3620      0.2379      0.1208       0.000    
  36    10.00       9.853       9.748       9.634       9.473       9.239       8.981       8.769       8.641       8.544    
        8.412       8.245       8.091       7.919       7.763       7.646       7.535       7.400       7.243       7.023    
        6.792       6.567       6.287       5.904       5.525       5.251       5.078       4.945       4.807       4.692    
        4.591       4.462       4.237       3.897       3.561       3.295       3.061       2.762       2.456       2.297    
        2.129       1.952       1.739       1.455      0.9959      0.5515      0.3400      0.2175      0.1118       0.000    
  37    10.00       9.868       9.787       9.664       9.449       9.193       8.965       8.801       8.694       8.578    
        8.407       8.229       8.095       7.947       7.802       7.690       7.588       7.462       7.297       7.105    
        6.916       6.670       6.318       5.956       5.594       5.284       5.074       4.906       4.778       4.658    
        4.533       4.341       4.004       3.697       3.464       3.235       2.996       2.761       2.544       2.366    
        2.205       2.006       1.765       1.391      0.9125      0.5316      0.3184      0.2023      0.1015       0.000    
  38    10.00       9.888       9.790       9.655       9.432       9.168       8.975       8.853       8.743       8.605    
        8.424       8.237       8.106       7.970       7.825       7.713       7.625       7.515       7.352       7.186    
        7.011       6.727       6.327       5.933       5.572       5.268       5.036       4.850       4.725       4.612    
        4.444       4.126       3.830       3.641       3.411       3.186       3.014       2.818       2.619       2.449    
        2.260       1.987       1.682       1.276      0.8015      0.5093      0.3582      0.2232      0.1002       0.000    
  39    10.00       9.887       9.775       9.634       9.419       9.179       9.006       8.897       8.761       8.609    
        8.462       8.274       8.124       7.995       7.855       7.737       7.636       7.528       7.397       7.247    
        7.042       6.736       6.318       5.876       5.504       5.219       4.956       4.763       4.669       4.558    
        4.294       3.970       3.790       3.574       3.361       3.202       3.061       2.882       2.690       2.530    
        2.256       1.871       1.512       1.074      0.7148      0.5516      0.4106      0.2674      0.1376       0.000    
  40    10.00       9.878       9.779       9.636       9.438       9.237       9.067       8.924       8.763       8.624    
        8.513       8.330       8.141       8.009       7.881       7.746       7.635       7.550       7.434       7.253    
        7.014       6.660       6.234       5.819       5.440       5.142       4.843       4.692       4.608       4.459    
        4.221       3.983       3.740       3.518       3.369       3.233       3.099       2.932       2.756       2.546    
        2.176       1.756       1.367       1.013      0.7667      0.5987      0.4583      0.3234      0.1588       0.000    
  41    10.00       9.894       9.816       9.676       9.472       9.263       9.101       8.972       8.814       8.649    
        8.517       8.349       8.174       8.050       7.900       7.739       7.644       7.551       7.400       7.200    
        6.952       6.605       6.178       5.773       5.396       4.996       4.720       4.641       4.547       4.438    
        4.251       3.965       3.721       3.547       3.400       3.279       3.132       2.973       2.790       2.463    
        2.030       1.621       1.283       1.022      0.8097      0.6537      0.5037      0.3558      0.1873       0.000    
  42    10.00       9.921       9.834       9.700       9.523       9.324       9.141       9.008       8.866       8.682    
        8.513       8.353       8.204       8.085       7.927       7.757       7.641       7.514       7.348       7.119    
        6.834       6.453       6.079       5.677       5.184       4.832       4.691       4.628       4.549       4.432    
        4.213       3.963       3.737       3.562       3.444       3.315       3.184       3.013       2.722       2.288    
        1.910       1.605       1.312       1.018      0.8200      0.6875      0.5435      0.3704      0.2055       0.000    
  43    10.00       9.937       9.844       9.706       9.532       9.366       9.203       9.055       8.878       8.687    
        8.532       8.370       8.223       8.112       7.964       7.772       7.617       7.472       7.245       6.953    
        6.674       6.307       5.963       5.501       5.038       4.809       4.699       4.626       4.551       4.428    
        4.220       3.993       3.776       3.606       3.493       3.365       3.194       2.949       2.524       2.140    
        1.904       1.635       1.326       1.021      0.8118      0.6893      0.5783      0.4006      0.1877       0.000    
  44    10.00       9.930       9.850       9.706       9.548       9.428       9.264       9.061       8.861       8.702    
        8.547       8.384       8.255       8.139       7.965       7.759       7.580       7.407       7.139       6.847    
        6.515       6.149       5.783       5.322       4.977       4.808       4.715       4.651       4.570       4.414    
        4.203       4.021       3.831       3.673       3.557       3.382       3.155       2.804       2.372       2.118    
        1.903       1.621       1.313       1.035      0.8218      0.6912      0.5787      0.3924      0.1729       0.000    
  45    10.00       9.915       9.820       9.704       9.588       9.435       9.261       9.067       8.868       8.709    
        8.547       8.400       8.286       8.153       7.962       7.741       7.541       7.344       7.055       6.712    
        6.330       5.944       5.550       5.213       4.976       4.833       4.743       4.675       4.572       4.445    
        4.263       4.056       3.886       3.724       3.558       3.373       3.124       2.750       2.376       2.080    
        1.835       1.570       1.283       1.033      0.8475      0.7393      0.5712      0.3400      0.1550       0.000    
  46    10.00       9.898       9.798       9.706       9.575       9.398       9.230       9.071       8.875       8.704    
        8.562       8.425       8.310       8.149       7.946       7.748       7.536       7.279       6.966       6.594    
        6.146       5.763       5.450       5.195       5.015       4.889       4.777       4.687       4.605       4.463    
        4.269       4.091       3.924       3.737       3.572       3.396       3.116       2.685       2.292       2.029    
        1.799       1.545       1.275       1.056      0.9124      0.7731      0.5180      0.2546      0.1107       0.000    
  47    10.00       9.891       9.790       9.662       9.510       9.365       9.220       9.048       8.869       8.717    
        8.586       8.464       8.301       8.127       7.944       7.752       7.518       7.219       6.926       6.475    
        5.989       5.691       5.423       5.223       5.056       4.933       4.820       4.710       4.615       4.469    
        4.266       4.090       3.921       3.744       3.602       3.389       3.000       2.613       2.286       2.006    
        1.804       1.564       1.324       1.113      0.9345      0.7093      0.4262      0.2228      9.2773E-02   0.000    
  48    10.00       9.879       9.758       9.621       9.483       9.354       9.208       9.050       8.884       8.735    
        8.602       8.457       8.279       8.100       7.921       7.730       7.506       7.225       6.861       6.413    
        5.994       5.689       5.428       5.244       5.108       4.957       4.843       4.751       4.634       4.435    
        4.236       4.063       3.908       3.778       3.591       3.309       2.940       2.592       2.281       2.035    
        1.817       1.589       1.373       1.134      0.8667      0.5763      0.3643      0.2161      9.7613E-02   0.000    
  49    10.00       9.868       9.736       9.602       9.489       9.356       9.200       9.046       8.912       8.756    
        8.597       8.415       8.240       8.090       7.886       7.700       7.513       7.198       6.839       6.483    
        6.041       5.701       5.441       5.280       5.121       4.958       4.869       4.782       4.593       4.353    
        4.183       4.045       3.933       3.763       3.546       3.295       2.925       2.578       2.335       2.073    
        1.816       1.607       1.376       1.095      0.7673      0.5138      0.3644      0.2352      0.1207       0.000    
  50    10.00       9.873       9.741       9.604       9.481       9.350       9.212       9.060       8.918       8.780    
        8.583       8.394       8.234       8.032       7.825       7.682       7.505       7.261       6.906       6.553    
        6.103       5.675       5.449       5.285       5.119       4.986       4.880       4.762       4.538       4.312    
        4.171       4.057       3.926       3.750       3.549       3.309       2.935       2.579       2.342       2.107    
        1.863       1.598       1.339       1.038      0.7154      0.5258      0.3921      0.2657      0.1603       0.000    

 HEAD WILL BE SAVED ON UNIT   51 AT END OF TIME STEP  48, STRESS PERIOD    2

 DRAWDOWN WILL BE SAVED ON UNIT   52 AT END OF TIME STEP  48, STRESS PERIOD    2
1
  VOLUMETRIC BUDGET FOR ENTIRE MODEL AT END OF TIME STEP 48 IN STRESS PERIOD   2
  ------------------------------------------------------------------------------

     CUMULATIVE VOLUMES      L**3       RATES FOR THIS TIME STEP      L**3/T
     ------------------                 ------------------------

           IN:                                      IN:
           ---                                      ---
             STORAGE =       23809.7500               STORAGE =         483.8199
       CONSTANT HEAD =       18428.6992         CONSTANT HEAD =         387.2462
               WELLS =           0.0000                 WELLS =           0.0000

            TOTAL IN =       42238.4492              TOTAL IN =         871.0661

          OUT:                                     OUT:
          ----                                     ----
             STORAGE =       1.1143E-02               STORAGE =           0.0000
       CONSTANT HEAD =       18238.4375         CONSTANT HEAD =         371.0660
               WELLS =       24000.0000                 WELLS =         500.0000

           TOTAL OUT =       42238.4492             TOTAL OUT =         871.0660

            IN - OUT =           0.0000              IN - OUT =       6.1035E-05

 PERCENT DISCREPANCY =           0.00     PERCENT DISCREPANCY =           0.00






          TIME SUMMARY AT END OF TIME STEP  48 IN STRESS PERIOD    2
                    SECONDS     MINUTES      HOURS       DAYS        YEARS
                    -----------------------------------------------------------
   TIME STEP LENGTH  86400.      1440.0      24.000      1.0000     2.73785E-03
 STRESS PERIOD TIME 4.14720E+06  69120.      1152.0      48.000     0.13142    
         TOTAL TIME 4.23360E+06  70560.      1176.0      49.000     0.13415    
1
 
 SOLVING FOR HEAD 

 OUTPUT CONTROL FOR STRESS PERIOD    2   TIME STEP  49
    SAVE HEAD FOR ALL LAYERS
    SAVE DRAWDOWN FOR ALL LAYERS
    SAVE BUDGET
    PRINT HEAD FOR ALL LAYERS
    PRINT BUDGET
 UBDSV1 SAVING "         STORAGE" ON UNIT  53 AT TIME STEP 49, STRESS PERIOD   2
 UBDSV2 SAVING "   CONSTANT HEAD" ON UNIT  53 AT TIME STEP 49, STRESS PERIOD   2
 UBDSV1 SAVING "FLOW RIGHT FACE " ON UNIT  53 AT TIME STEP 49, STRESS PERIOD   2
 UBDSV1 SAVING "FLOW FRONT FACE " ON UNIT  53 AT TIME STEP 49, STRESS PERIOD   2
1
              HEAD IN LAYER   1 AT END OF TIME STEP  49 IN STRESS PERIOD    2
  ---------------------------------------------------------------------------

            1           2           3           4           5           6           7           8           9          10
           11          12          13          14          15          16          17          18          19          20
           21          22          23          24          25          26          27          28          29          30
           31          32          33          34          35          36          37          38          39          40
           41          42          43          44          45          46          47          48          49          50
 ........................................................................................................................
   1    10.00       9.952       9.905       9.849       9.805       9.768       9.718       9.649       9.575       9.505    
        9.353       9.162       9.021       8.865       8.697       8.528       8.371       8.191       7.949       7.709    
        7.545       7.357       7.110       6.859       6.635       6.440       6.161       5.908       5.728       5.540    
        5.378       5.272       5.158       5.028       4.903       4.749       4.582       4.356       4.098       3.816    
        3.451       3.081       2.594       2.063       1.664       1.376       1.161      0.9159      0.5377       0.000    
   2    10.00       9.947       9.897       9.849       9.812       9.776       9.721       9.651       9.582       9.489    
        9.340       9.169       9.011       8.868       8.713       8.539       8.352       8.166       7.941       7.699    
        7.520       7.366       7.102       6.831       6.632       6.411       6.142       5.900       5.694       5.516    
        5.379       5.282       5.185       5.046       4.901       4.747       4.556       4.345       4.095       3.773    
        3.432       3.117       2.606       2.078       1.724       1.468       1.220      0.9459      0.5710       0.000    
   3    10.00       9.939       9.896       9.864       9.828       9.791       9.731       9.648       9.564       9.463    
        9.328       9.177       9.024       8.879       8.696       8.477       8.295       8.134       7.928       7.715    
        7.531       7.312       7.052       6.812       6.596       6.349       6.091       5.852       5.639       5.507    
        5.395       5.301       5.205       5.052       4.898       4.735       4.545       4.311       4.031       3.784    
        3.482       3.052       2.554       2.175       1.874       1.576       1.271      0.9587      0.5412       0.000    
   4    10.00       9.939       9.901       9.872       9.847       9.808       9.739       9.643       9.544       9.443    
        9.315       9.179       9.026       8.844       8.619       8.416       8.286       8.105       7.904       7.738    
        7.487       7.209       6.980       6.768       6.558       6.262       5.977       5.786       5.641       5.527    
        5.426       5.328       5.223       5.046       4.856       4.708       4.508       4.265       4.026       3.810    
        3.467       2.992       2.616       2.297       1.973       1.635       1.268      0.9026      0.4625       0.000    
   5    10.00       9.944       9.909       9.880       9.858       9.817       9.745       9.635       9.525       9.424    
        9.314       9.174       8.979       8.767       8.575       8.415       8.253       8.084       7.896       7.662    
        7.371       7.141       6.951       6.735       6.466       6.160       5.925       5.789       5.670       5.554    
        5.438       5.319       5.199       5.028       4.835       4.656       4.477       4.285       4.068       3.782    
        3.393       3.032       2.710       2.388       2.034       1.640       1.179      0.7601      0.3936       0.000    
   6    10.00       9.953       9.920       9.891       9.860       9.815       9.739       9.620       9.524       9.416    
        9.293       9.120       8.906       8.729       8.553       8.370       8.205       8.054       7.844       7.579    
        7.320       7.100       6.906       6.640       6.348       6.115       5.925       5.797       5.666       5.546    
        5.443       5.313       5.162       4.987       4.799       4.645       4.489       4.315       4.086       3.778    
        3.438       3.088       2.759       2.434       2.050       1.574       1.077      0.7147      0.3680       0.000    
   7    10.00       9.960       9.930       9.900       9.867       9.813       9.710       9.596       9.496       9.363    
        9.237       9.053       8.858       8.677       8.496       8.311       8.149       8.011       7.770       7.487    
        7.253       7.030       6.813       6.555       6.307       6.095       5.928       5.775       5.634       5.541    
        5.436       5.292       5.132       4.955       4.793       4.656       4.512       4.333       4.098       3.818    
        3.480       3.120       2.778       2.419       2.040       1.540       1.031      0.6807      0.3222       0.000    
   8    10.00       9.966       9.940       9.907       9.869       9.782       9.657       9.549       9.424       9.297    
        9.158       8.970       8.804       8.620       8.417       8.236       8.096       7.931       7.704       7.429    
        7.159       6.953       6.773       6.508       6.250       6.061       5.872       5.708       5.611       5.521    
        5.395       5.252       5.117       4.960       4.792       4.650       4.540       4.403       4.173       3.851    
        3.481       3.160       2.841       2.423       2.000       1.441      0.9547      0.6668      0.3086       0.000    
   9    10.00       9.973       9.944       9.907       9.843       9.728       9.595       9.469       9.360       9.229    
        9.065       8.897       8.733       8.556       8.347       8.177       8.046       7.851       7.628       7.348    
        7.112       6.908       6.654       6.383       6.165       5.996       5.807       5.668       5.574       5.471    
        5.357       5.228       5.100       4.964       4.819       4.684       4.572       4.450       4.213       3.863    
        3.522       3.237       2.901       2.497       1.872       1.241      0.9096      0.5640      0.2151       0.000    
  10    10.00       9.974       9.943       9.891       9.793       9.657       9.509       9.411       9.308       9.153    
        9.009       8.844       8.680       8.489       8.296       8.143       7.967       7.765       7.529       7.302    
        7.071       6.760       6.497       6.284       6.098       5.946       5.771       5.629       5.536       5.450    
        5.329       5.190       5.076       4.950       4.822       4.730       4.618       4.477       4.205       3.859    
        3.592       3.341       2.955       2.346       1.623       1.165      0.8257      0.5042      0.2515       0.000    
  11    10.00       9.974       9.933       9.852       9.742       9.590       9.460       9.378       9.254       9.122    
        8.984       8.811       8.615       8.410       8.247       8.083       7.918       7.701       7.472       7.249    
        6.920       6.620       6.410       6.217       6.038       5.869       5.704       5.592       5.514       5.429    
        5.292       5.162       5.067       4.954       4.850       4.747       4.620       4.467       4.211       3.934    
        3.653       3.326       2.905       2.234       1.557       1.096      0.7739      0.5871      0.3243       0.000    
  12    10.00       9.972       9.914       9.811       9.667       9.516       9.413       9.331       9.223       9.104    
        8.953       8.768       8.572       8.390       8.224       8.043       7.853       7.631       7.398       7.095    
        6.771       6.543       6.336       6.140       5.942       5.774       5.657       5.573       5.473       5.364    
        5.242       5.146       5.062       4.973       4.881       4.777       4.641       4.455       4.218       3.968    
        3.667       3.310       2.734       1.980       1.404       1.079      0.8593      0.6230      0.3552       0.000    
  13    10.00       9.962       9.873       9.732       9.582       9.453       9.369       9.297       9.205       9.090    
        8.932       8.740       8.559       8.413       8.221       7.998       7.776       7.536       7.276       6.981    
        6.697       6.449       6.225       6.022       5.832       5.709       5.634       5.517       5.389       5.291    
        5.213       5.136       5.061       4.986       4.899       4.808       4.684       4.472       4.229       3.933    
        3.586       3.136       2.468       1.857       1.438       1.161      0.9035      0.6247      0.3086       0.000    
  14    10.00       9.931       9.804       9.648       9.509       9.407       9.351       9.285       9.197       9.072    
        8.896       8.733       8.584       8.432       8.216       7.952       7.714       7.442       7.152       6.845    
        6.569       6.322       6.100       5.900       5.751       5.666       5.575       5.434       5.325       5.251    
        5.194       5.122       5.059       4.989       4.909       4.836       4.692       4.474       4.218       3.848    
        3.440       2.909       2.395       1.948       1.530       1.205      0.9196      0.6253      0.2785       0.000    
  15    10.00       9.872       9.730       9.591       9.480       9.402       9.340       9.277       9.190       9.073    
        8.919       8.759       8.613       8.399       8.147       7.894       7.628       7.346       7.002       6.673    
        6.417       6.178       5.969       5.815       5.702       5.612       5.502       5.370       5.280       5.226    
        5.163       5.104       5.055       4.989       4.915       4.836       4.683       4.476       4.153       3.755    
        3.331       2.854       2.437       1.976       1.623       1.277      0.9310      0.6194      0.2541       0.000    
  16    10.00       9.850       9.697       9.570       9.474       9.403       9.339       9.282       9.198       9.076    
        8.931       8.778       8.599       8.329       8.053       7.844       7.582       7.204       6.811       6.505    
        6.239       6.039       5.869       5.737       5.613       5.531       5.410       5.302       5.233       5.173    
        5.126       5.088       5.036       4.976       4.910       4.819       4.680       4.429       4.077       3.714    
        3.352       2.892       2.422       2.015       1.683       1.319      0.9283      0.5551      0.2089       0.000    
  17    10.00       9.831       9.677       9.574       9.489       9.417       9.355       9.290       9.199       9.086    
        8.950       8.759       8.513       8.223       7.990       7.792       7.474       7.049       6.648       6.352    
        6.138       5.914       5.725       5.586       5.484       5.381       5.275       5.207       5.151       5.116    
        5.098       5.063       5.009       4.949       4.881       4.784       4.619       4.402       4.117       3.736    
        3.321       2.836       2.402       2.042       1.702       1.328      0.9480      0.5783      0.2445       0.000    
  18    10.00       9.821       9.676       9.588       9.511       9.442       9.380       9.302       9.212       9.090    
        8.929       8.702       8.430       8.183       7.955       7.665       7.295       6.907       6.554       6.262    
        5.999       5.711       5.547       5.431       5.342       5.226       5.157       5.099       5.063       5.064    
        5.054       5.024       4.971       4.904       4.834       4.730       4.572       4.395       4.148       3.797    
        3.259       2.742       2.387       2.044       1.755       1.362      0.9427      0.5670      0.2443       0.000    
  19    10.00       9.829       9.708       9.618       9.536       9.466       9.393       9.321       9.238       9.098    
        8.907       8.665       8.395       8.121       7.820       7.506       7.162       6.788       6.431       6.122    
        5.816       5.564       5.432       5.342       5.217       5.114       5.055       5.003       4.992       4.993    
        4.995       4.974       4.913       4.851       4.793       4.713       4.563       4.369       4.120       3.708    
        3.166       2.727       2.373       2.036       1.712       1.306      0.9055      0.5635      0.2656       0.000    
  20    10.00       9.838       9.735       9.656       9.577       9.494       9.408       9.330       9.247       9.104    
        8.897       8.646       8.332       7.976       7.630       7.373       7.027       6.624       6.311       6.002    
        5.729       5.520       5.361       5.224       5.064       4.992       4.953       4.926       4.929       4.929    
        4.931       4.904       4.852       4.814       4.765       4.683       4.512       4.316       4.031       3.569    
        3.102       2.751       2.342       1.959       1.605       1.206      0.9081      0.5596      0.2481       0.000    
  21    10.00       9.862       9.770       9.689       9.603       9.524       9.429       9.344       9.254       9.094    
        8.871       8.565       8.173       7.755       7.433       7.197       6.872       6.576       6.282       5.948    
        5.688       5.457       5.258       4.999       4.866       4.829       4.773       4.809       4.842       4.839    
        4.835       4.806       4.792       4.771       4.729       4.617       4.447       4.276       3.863       3.383    
        3.035       2.656       2.238       1.881       1.506       1.157      0.8222      0.4930      0.2477       0.000    
  22    10.00       9.892       9.795       9.707       9.624       9.549       9.442       9.332       9.227       9.062    
        8.789       8.404       7.961       7.569       7.291       7.045       6.796       6.582       6.258       5.931    
        5.658       5.328       4.970       4.699       4.599       4.501       4.515       4.617       4.658       4.679    
        4.697       4.694       4.713       4.721       4.681       4.563       4.392       4.077       3.607       3.300    
        2.925       2.518       2.143       1.799       1.480       1.065      0.7135      0.4726      0.2657       0.000    
  23    10.00       9.893       9.800       9.721       9.633       9.534       9.412       9.313       9.221       9.013    
        8.678       8.264       7.860       7.517       7.232       7.024       6.789       6.508       6.198       5.937    
        5.557       5.074       4.690       4.413       4.009       4.010       4.226       4.349       4.438       4.523    
        4.562       4.593       4.628       4.652       4.614       4.495       4.245       3.880       3.496       3.119    
        2.762       2.425       2.064       1.793       1.389      0.9683      0.6939      0.4544      0.2360       0.000    
  24    10.00       9.917       9.811       9.707       9.606       9.492       9.383       9.298       9.194       8.949    
        8.568       8.177       7.842       7.543       7.271       6.997       6.710       6.455       6.208       5.902    
        5.447       4.968       4.512       3.678       2.787       3.307       3.807       4.100       4.263       4.398    
        4.470       4.516       4.560       4.567       4.527       4.373       4.093       3.792       3.369       2.968    
        2.689       2.365       2.023       1.676       1.243      0.8984      0.6675      0.4257      0.1878       0.000    
  25    10.00       9.909       9.786       9.660       9.541       9.438       9.354       9.269       9.141       8.887    
        8.487       8.122       7.865       7.586       7.272       6.988       6.718       6.496       6.267       5.873    
        5.352       4.880       4.150       2.794     -3.9196E-02   2.696       3.485       3.947       4.189       4.330    
        4.414       4.469       4.506       4.500       4.445       4.275       3.977       3.626       3.281       2.941    
        2.622       2.271       1.883       1.517       1.106      0.8249      0.6646      0.4137      0.1534       0.000    
  26    10.00       9.886       9.729       9.587       9.491       9.408       9.325       9.220       9.069       8.754    
        8.382       8.126       7.879       7.601       7.307       7.034       6.781       6.560       6.273       5.854    
        5.396       4.876       4.237       3.505       2.831       3.189       3.659       3.983       4.181       4.310    
        4.389       4.446       4.465       4.445       4.366       4.164       3.832       3.549       3.273       2.907    
        2.576       2.179       1.734       1.341       1.005      0.8071      0.6285      0.3687      0.1569       0.000    
  27    10.00       9.861       9.693       9.561       9.480       9.371       9.262       9.128       8.926       8.627    
        8.362       8.136       7.885       7.614       7.325       7.109       6.935       6.638       6.276       5.849    
        5.460       5.083       4.570       4.089       3.708       3.768       3.948       4.108       4.233       4.324    
        4.406       4.449       4.450       4.408       4.300       4.068       3.805       3.556       3.235       2.892    
        2.550       2.070       1.561       1.193      0.9592      0.7938      0.5976      0.3897      0.1879       0.000    
  28    10.00       9.843       9.720       9.571       9.433       9.300       9.178       9.021       8.818       8.585    
        8.368       8.165       7.916       7.614       7.357       7.183       6.989       6.661       6.241       5.864    
        5.589       5.308       4.906       4.532       4.291       4.212       4.207       4.255       4.335       4.408    
        4.457       4.465       4.449       4.383       4.241       4.031       3.821       3.529       3.196       2.850    
        2.433       1.983       1.477       1.112      0.9486      0.7905      0.6160      0.4069      0.1887       0.000    
  29    10.00       9.848       9.695       9.537       9.372       9.243       9.105       8.930       8.758       8.574    
        8.379       8.178       7.936       7.680       7.461       7.256       6.997       6.632       6.249       5.956    
        5.723       5.476       5.147       4.815       4.618       4.511       4.444       4.441       4.477       4.498    
        4.498       4.486       4.449       4.359       4.198       4.018       3.824       3.553       3.183       2.746    
        2.365       1.886       1.382       1.096      0.9515      0.7960      0.6112      0.3974      0.1976       0.000    
  30    10.00       9.826       9.671       9.482       9.313       9.195       9.048       8.894       8.761       8.595    
        8.395       8.177       7.956       7.752       7.557       7.326       6.996       6.656       6.350       6.073    
        5.873       5.630       5.331       5.043       4.806       4.709       4.645       4.618       4.592       4.567    
        4.538       4.508       4.449       4.331       4.185       4.043       3.849       3.500       3.044       2.599    
        2.213       1.774       1.390       1.125      0.9731      0.7977      0.6004      0.4165      0.2043       0.000    
  31    10.00       9.803       9.624       9.442       9.291       9.167       9.028       8.891       8.759       8.597    
        8.399       8.180       7.989       7.820       7.636       7.375       7.049       6.755       6.515       6.270    
        6.057       5.784       5.489       5.247       5.005       4.848       4.782       4.718       4.671       4.620    
        4.580       4.525       4.443       4.328       4.187       4.029       3.723       3.333       2.954       2.520    
        2.155       1.718       1.345       1.153      0.9909      0.8259      0.6205      0.4170      0.1976       0.000    
  32    10.00       9.787       9.595       9.440       9.311       9.188       9.043       8.887       8.727       8.573    
        8.378       8.188       8.018       7.831       7.660       7.438       7.186       6.966       6.720       6.467    
        6.253       5.998       5.701       5.441       5.190       4.967       4.879       4.797       4.729       4.657    
        4.600       4.547       4.438       4.296       4.164       3.945       3.565       3.199       2.866       2.471    
        2.047       1.640       1.366       1.219       1.041      0.8329      0.6158      0.3961      0.1976       0.000    
  33    10.00       9.781       9.616       9.491       9.363       9.220       9.045       8.871       8.699       8.524    
        8.361       8.201       8.033       7.855       7.665       7.493       7.309       7.122       6.920       6.674    
        6.425       6.185       5.937       5.634       5.325       5.072       4.942       4.859       4.774       4.684    
        4.617       4.539       4.420       4.285       4.093       3.789       3.401       3.093       2.773       2.313    
        1.928       1.663       1.446       1.271       1.068      0.8491      0.5832      0.3484      0.1570       0.000    
  34    10.00       9.800       9.665       9.548       9.406       9.230       9.045       8.842       8.652       8.505    
        8.360       8.214       8.062       7.879       7.711       7.545       7.386       7.237       7.044       6.793    
        6.558       6.342       6.096       5.781       5.441       5.159       4.991       4.893       4.798       4.697    
        4.609       4.523       4.406       4.235       4.000       3.625       3.249       2.973       2.594       2.190    
        1.954       1.780       1.571       1.345       1.079      0.7700      0.4712      0.2790      0.1156       0.000    
  35    10.00       9.833       9.712       9.592       9.440       9.243       9.031       8.806       8.625       8.499    
        8.402       8.255       8.087       7.892       7.713       7.595       7.478       7.326       7.126       6.888    
        6.664       6.450       6.222       5.868       5.483       5.212       5.030       4.917       4.807       4.691    
        4.604       4.503       4.364       4.139       3.772       3.383       3.133       2.848       2.463       2.221    
        2.057       1.858       1.649       1.428       1.091      0.6547      0.3618      0.2378      0.1207       0.000    
  36    10.00       9.853       9.747       9.633       9.471       9.236       8.978       8.766       8.637       8.540    
        8.407       8.240       8.085       7.913       7.756       7.639       7.528       7.392       7.235       7.014    
        6.781       6.556       6.275       5.892       5.513       5.239       5.066       4.932       4.795       4.680    
        4.580       4.451       4.228       3.890       3.555       3.290       3.057       2.759       2.454       2.295    
        2.128       1.950       1.738       1.454      0.9953      0.5512      0.3398      0.2174      0.1117       0.000    
  37    10.00       9.868       9.786       9.663       9.448       9.191       8.963       8.797       8.690       8.574    
        8.402       8.224       8.090       7.941       7.795       7.683       7.581       7.455       7.289       7.096    
        6.907       6.660       6.308       5.945       5.583       5.273       5.062       4.895       4.768       4.648    
        4.523       4.332       3.997       3.691       3.459       3.231       2.992       2.759       2.542       2.364    
        2.204       2.004       1.764       1.390      0.9120      0.5314      0.3182      0.2022      0.1014       0.000    
  38    10.00       9.888       9.789       9.654       9.431       9.166       8.973       8.850       8.739       8.601    
        8.420       8.232       8.101       7.964       7.819       7.707       7.618       7.508       7.345       7.178    
        7.003       6.718       6.317       5.923       5.563       5.258       5.027       4.841       4.716       4.603    
        4.435       4.119       3.825       3.636       3.407       3.182       3.011       2.815       2.617       2.447    
        2.258       1.986       1.681       1.276      0.8011      0.5091      0.3581      0.2231      0.1001       0.000    
  39    10.00       9.886       9.774       9.633       9.417       9.177       9.003       8.894       8.758       8.606    
        8.458       8.270       8.119       7.990       7.850       7.730       7.630       7.522       7.390       7.240    
        7.034       6.728       6.310       5.868       5.497       5.212       4.949       4.756       4.662       4.552    
        4.288       3.965       3.785       3.570       3.358       3.199       3.058       2.879       2.688       2.528    
        2.255       1.870       1.511       1.073      0.7145      0.5514      0.4105      0.2673      0.1375       0.000    
  40    10.00       9.877       9.779       9.635       9.436       9.235       9.065       8.921       8.760       8.620    
        8.509       8.326       8.136       8.004       7.875       7.740       7.629       7.543       7.428       7.246    
        7.008       6.654       6.228       5.812       5.434       5.136       4.837       4.687       4.602       4.454    
        4.216       3.979       3.736       3.515       3.366       3.230       3.096       2.930       2.753       2.544    
        2.174       1.755       1.366       1.012      0.7664      0.5985      0.4581      0.3233      0.1588       0.000    
  41    10.00       9.894       9.815       9.675       9.471       9.261       9.099       8.970       8.812       8.645    
        8.514       8.345       8.170       8.045       7.895       7.734       7.638       7.546       7.395       7.194    
        6.947       6.600       6.173       5.768       5.391       4.991       4.716       4.636       4.543       4.434    
        4.247       3.961       3.718       3.544       3.397       3.276       3.129       2.970       2.788       2.462    
        2.028       1.620       1.283       1.022      0.8094      0.6535      0.5035      0.3557      0.1873       0.000    
  42    10.00       9.921       9.833       9.699       9.522       9.323       9.139       9.006       8.863       8.680    
        8.510       8.349       8.200       8.081       7.923       7.752       7.636       7.509       7.344       7.115    
        6.830       6.449       6.076       5.673       5.181       4.829       4.688       4.624       4.545       4.428    
        4.209       3.960       3.734       3.559       3.441       3.312       3.182       3.011       2.720       2.287    
        1.909       1.605       1.312       1.017      0.8197      0.6873      0.5434      0.3703      0.2055       0.000    
  43    10.00       9.937       9.844       9.705       9.531       9.365       9.202       9.053       8.876       8.685    
        8.530       8.367       8.220       8.109       7.961       7.768       7.613       7.468       7.242       6.949    
        6.671       6.305       5.960       5.498       5.035       4.806       4.696       4.623       4.548       4.425    
        4.217       3.991       3.774       3.603       3.490       3.363       3.192       2.947       2.522       2.139    
        1.903       1.634       1.326       1.020      0.8116      0.6891      0.5781      0.4005      0.1877       0.000    
  44    10.00       9.930       9.850       9.706       9.548       9.428       9.263       9.060       8.859       8.701    
        8.545       8.382       8.253       8.136       7.962       7.756       7.577       7.404       7.136       6.844    
        6.512       6.147       5.781       5.320       4.975       4.806       4.712       4.649       4.567       4.412    
        4.200       4.019       3.829       3.670       3.555       3.380       3.153       2.802       2.370       2.118    
        1.902       1.621       1.313       1.035      0.8215      0.6910      0.5786      0.3923      0.1729       0.000    
  45    10.00       9.915       9.820       9.703       9.588       9.434       9.261       9.066       8.867       8.707    
        8.546       8.399       8.284       8.151       7.960       7.738       7.539       7.342       7.053       6.710    
        6.328       5.942       5.548       5.211       4.974       4.831       4.740       4.673       4.570       4.443    
        4.260       4.054       3.884       3.721       3.556       3.371       3.122       2.749       2.375       2.080    
        1.834       1.569       1.282       1.033      0.8473      0.7391      0.5711      0.3400      0.1550       0.000    
  46    10.00       9.898       9.798       9.706       9.574       9.398       9.230       9.071       8.874       8.704    
        8.561       8.424       8.308       8.148       7.945       7.747       7.534       7.277       6.964       6.592    
        6.145       5.761       5.449       5.193       5.013       4.887       4.775       4.684       4.603       4.461    
        4.267       4.089       3.922       3.735       3.571       3.395       3.115       2.684       2.292       2.029    
        1.798       1.544       1.275       1.056      0.9123      0.7729      0.5179      0.2546      0.1107       0.000    
  47    10.00       9.891       9.790       9.662       9.509       9.364       9.220       9.048       8.868       8.716    
        8.585       8.463       8.300       8.125       7.943       7.750       7.517       7.218       6.925       6.474    
        5.988       5.690       5.421       5.221       5.054       4.931       4.819       4.708       4.613       4.467    
        4.264       4.088       3.919       3.742       3.601       3.388       2.999       2.613       2.285       2.005    
        1.803       1.564       1.324       1.113      0.9344      0.7092      0.4262      0.2227      9.2760E-02   0.000    
  48    10.00       9.879       9.757       9.621       9.482       9.354       9.207       9.050       8.884       8.734    
        8.601       8.457       8.278       8.099       7.920       7.729       7.505       7.224       6.860       6.412    
        5.993       5.688       5.426       5.243       5.107       4.955       4.841       4.749       4.632       4.433    
        4.234       4.062       3.907       3.777       3.590       3.308       2.939       2.591       2.281       2.035    
        1.817       1.589       1.372       1.134      0.8665      0.5763      0.3642      0.2160      9.7603E-02   0.000    
  49    10.00       9.868       9.736       9.602       9.488       9.355       9.200       9.045       8.911       8.756    
        8.596       8.415       8.239       8.089       7.885       7.699       7.513       7.197       6.838       6.482    
        6.040       5.700       5.440       5.279       5.119       4.956       4.868       4.780       4.591       4.352    
        4.182       4.044       3.932       3.762       3.545       3.294       2.924       2.578       2.334       2.072    
        1.816       1.606       1.376       1.095      0.7673      0.5138      0.3643      0.2352      0.1206       0.000    
  50    10.00       9.873       9.741       9.604       9.481       9.350       9.211       9.059       8.918       8.779    
        8.583       8.394       8.233       8.031       7.824       7.682       7.505       7.260       6.905       6.552    
        6.102       5.673       5.447       5.284       5.117       4.985       4.879       4.760       4.537       4.310    
        4.169       4.056       3.925       3.749       3.548       3.308       2.934       2.579       2.342       2.106    
        1.862       1.598       1.339       1.038      0.7153      0.5258      0.3920      0.2657      0.1602       0.000    

 HEAD WILL BE SAVED ON UNIT   51 AT END OF TIME STEP  49, STRESS PERIOD    2

 DRAWDOWN WILL BE SAVED ON UNIT   52 AT END OF TIME STEP  49, STRESS PERIOD    2
1
  VOLUMETRIC BUDGET FOR ENTIRE MODEL AT END OF TIME STEP 49 IN STRESS PERIOD   2
  ------------------------------------------------------------------------------

     CUMULATIVE VOLUMES      L**3       RATES FOR THIS TIME STEP      L**3/T
     ------------------                 ------------------------

           IN:                                      IN:
           ---                                      ---
             STORAGE =       24292.6016               STORAGE =         482.8524
       CONSTANT HEAD =       18816.7812         CONSTANT HEAD =         388.0817
               WELLS =           0.0000                 WELLS =           0.0000

            TOTAL IN =       43109.3828              TOTAL IN =         870.9341

          OUT:                                     OUT:
          ----                                     ----
             STORAGE =       1.1143E-02               STORAGE =           0.0000
       CONSTANT HEAD =       18609.3711         CONSTANT HEAD =         370.9340
               WELLS =       24500.0000                 WELLS =         500.0000

           TOTAL OUT =       43109.3828             TOTAL OUT =         870.9340

            IN - OUT =           0.0000              IN - OUT =       1.2207E-04

 PERCENT DISCREPANCY =           0.00     PERCENT DISCREPANCY =           0.00






          TIME SUMMARY AT END OF TIME STEP  49 IN STRESS PERIOD    2
                    SECONDS     MINUTES      HOURS       DAYS        YEARS
                    -----------------------------------------------------------
   TIME STEP LENGTH  86400.      1440.0      24.000      1.0000     2.73785E-03
 STRESS PERIOD TIME 4.23360E+06  70560.      1176.0      49.000     0.13415    
         TOTAL TIME 4.32000E+06  72000.      1200.0      50.000     0.13689    
1
 
 SOLVING FOR HEAD 

 OUTPUT CONTROL FOR STRESS PERIOD    2   TIME STEP  50
    SAVE HEAD FOR ALL LAYERS
    SAVE DRAWDOWN FOR ALL LAYERS
    SAVE BUDGET
    PRINT HEAD FOR ALL LAYERS
    PRINT BUDGET
 UBDSV1 SAVING "         STORAGE" ON UNIT  53 AT TIME STEP 50, STRESS PERIOD   2
 UBDSV2 SAVING "   CONSTANT HEAD" ON UNIT  53 AT TIME STEP 50, STRESS PERIOD   2
 UBDSV1 SAVING "FLOW RIGHT FACE " ON UNIT  53 AT TIME STEP 50, STRESS PERIOD   2
 UBDSV1 SAVING "FLOW FRONT FACE " ON UNIT  53 AT TIME STEP 50, STRESS PERIOD   2
1
              HEAD IN LAYER   1 AT END OF TIME STEP  50 IN STRESS PERIOD    2
  ---------------------------------------------------------------------------

            1           2           3           4           5           6           7           8           9          10
           11          12          13          14          15          16          17          18          19          20
           21          22          23          24          25          26          27          28          29          30
           31          32          33          34          35          36          37          38          39          40
           41          42          43          44          45          46          47          48          49          50
 ........................................................................................................................
   1    10.00       9.952       9.905       9.849       9.805       9.768       9.718       9.649       9.574       9.505    
        9.353       9.162       9.020       8.863       8.696       8.527       8.369       8.189       7.947       7.707    
        7.542       7.355       7.107       6.856       6.632       6.437       6.158       5.904       5.724       5.536    
        5.374       5.268       5.154       5.024       4.900       4.745       4.579       4.354       4.096       3.814    
        3.450       3.079       2.593       2.062       1.663       1.376       1.161      0.9156      0.5375       0.000    
   2    10.00       9.947       9.897       9.849       9.812       9.776       9.720       9.650       9.581       9.488    
        9.339       9.168       9.010       8.866       8.712       8.537       8.350       8.164       7.939       7.697    
        7.518       7.364       7.100       6.828       6.629       6.408       6.139       5.896       5.690       5.512    
        5.375       5.278       5.181       5.043       4.897       4.744       4.552       4.343       4.093       3.771    
        3.430       3.115       2.605       2.078       1.724       1.468       1.220      0.9456      0.5709       0.000    
   3    10.00       9.939       9.896       9.863       9.828       9.790       9.731       9.648       9.564       9.462    
        9.327       9.176       9.023       8.878       8.694       8.475       8.293       8.132       7.925       7.712    
        7.529       7.309       7.049       6.809       6.592       6.345       6.087       5.848       5.635       5.503    
        5.390       5.297       5.201       5.048       4.895       4.732       4.542       4.308       4.028       3.782    
        3.480       3.051       2.553       2.174       1.873       1.575       1.271      0.9584      0.5410       0.000    
   4    10.00       9.939       9.901       9.872       9.847       9.807       9.739       9.643       9.544       9.443    
        9.314       9.178       9.025       8.843       8.617       8.414       8.284       8.102       7.902       7.736    
        7.484       7.206       6.977       6.764       6.554       6.258       5.972       5.781       5.636       5.522    
        5.421       5.323       5.218       5.042       4.852       4.705       4.505       4.262       4.023       3.807    
        3.465       2.991       2.615       2.296       1.972       1.634       1.267      0.9023      0.4624       0.000    
   5    10.00       9.944       9.909       9.880       9.858       9.817       9.745       9.635       9.524       9.423    
        9.313       9.173       8.977       8.765       8.573       8.413       8.250       8.081       7.894       7.659    
        7.368       7.137       6.947       6.731       6.462       6.155       5.920       5.784       5.665       5.549    
        5.433       5.314       5.194       5.024       4.831       4.652       4.473       4.281       4.065       3.779    
        3.391       3.030       2.708       2.386       2.033       1.639       1.179      0.7598      0.3934       0.000    
   6    10.00       9.953       9.919       9.891       9.860       9.815       9.738       9.620       9.523       9.415    
        9.292       9.119       8.904       8.727       8.551       8.368       8.202       8.051       7.841       7.575    
        7.316       7.096       6.901       6.635       6.343       6.110       5.920       5.792       5.660       5.541    
        5.438       5.308       5.157       4.982       4.794       4.641       4.485       4.311       4.083       3.775    
        3.436       3.086       2.758       2.433       2.049       1.573       1.077      0.7145      0.3678       0.000    
   7    10.00       9.960       9.930       9.900       9.867       9.813       9.709       9.596       9.496       9.362    
        9.236       9.052       8.857       8.675       8.493       8.308       8.146       8.007       7.767       7.483    
        7.249       7.025       6.808       6.550       6.301       6.089       5.922       5.769       5.628       5.535    
        5.430       5.286       5.126       4.949       4.788       4.652       4.507       4.329       4.095       3.815    
        3.477       3.118       2.777       2.418       2.039       1.539       1.030      0.6805      0.3221       0.000    
   8    10.00       9.966       9.940       9.907       9.869       9.782       9.656       9.548       9.423       9.296    
        9.157       8.968       8.802       8.617       8.415       8.233       8.093       7.928       7.700       7.425    
        7.153       6.948       6.767       6.502       6.243       6.054       5.865       5.701       5.604       5.514    
        5.388       5.245       5.110       4.954       4.786       4.645       4.534       4.398       4.169       3.847    
        3.478       3.158       2.839       2.421       1.999       1.441      0.9543      0.6666      0.3085       0.000    
   9    10.00       9.973       9.944       9.906       9.843       9.728       9.594       9.468       9.359       9.227    
        9.063       8.895       8.731       8.553       8.344       8.174       8.042       7.847       7.623       7.342    
        7.107       6.902       6.647       6.376       6.157       5.988       5.799       5.661       5.566       5.463    
        5.349       5.220       5.093       4.957       4.812       4.677       4.566       4.444       4.208       3.859    
        3.519       3.234       2.898       2.496       1.871       1.240      0.9092      0.5637      0.2151       0.000    
  10    10.00       9.974       9.942       9.891       9.792       9.656       9.508       9.410       9.306       9.151    
        9.007       8.841       8.677       8.486       8.292       8.139       7.962       7.760       7.523       7.296    
        7.065       6.752       6.490       6.275       6.090       5.937       5.762       5.621       5.527       5.442    
        5.321       5.182       5.068       4.943       4.815       4.723       4.612       4.471       4.200       3.855    
        3.588       3.338       2.952       2.345       1.622       1.165      0.8253      0.5040      0.2514       0.000    
  11    10.00       9.974       9.933       9.852       9.741       9.589       9.458       9.376       9.252       9.120    
        8.982       8.808       8.611       8.406       8.243       8.078       7.913       7.696       7.466       7.242    
        6.913       6.612       6.401       6.208       6.028       5.860       5.694       5.583       5.505       5.420    
        5.283       5.153       5.058       4.946       4.842       4.739       4.613       4.461       4.206       3.929    
        3.649       3.323       2.903       2.233       1.556       1.095      0.7735      0.5868      0.3241       0.000    
  12    10.00       9.972       9.914       9.811       9.666       9.515       9.411       9.329       9.221       9.102    
        8.950       8.765       8.568       8.386       8.220       8.038       7.847       7.625       7.391       7.088    
        6.763       6.534       6.327       6.130       5.932       5.764       5.647       5.564       5.464       5.355    
        5.233       5.136       5.053       4.964       4.873       4.770       4.634       4.449       4.213       3.963    
        3.662       3.307       2.732       1.979       1.403       1.079      0.8589      0.6227      0.3550       0.000    
  13    10.00       9.962       9.873       9.731       9.581       9.451       9.367       9.295       9.203       9.088    
        8.929       8.736       8.555       8.409       8.216       7.993       7.770       7.529       7.269       6.972    
        6.687       6.440       6.215       6.011       5.821       5.698       5.623       5.506       5.378       5.281    
        5.202       5.127       5.051       4.977       4.890       4.799       4.677       4.465       4.223       3.928    
        3.582       3.133       2.466       1.856       1.437       1.160      0.9030      0.6244      0.3085       0.000    
  14    10.00       9.931       9.803       9.647       9.508       9.406       9.350       9.283       9.195       9.069    
        8.893       8.729       8.580       8.427       8.211       7.947       7.707       7.434       7.144       6.836    
        6.559       6.311       6.089       5.888       5.739       5.655       5.564       5.422       5.313       5.240    
        5.183       5.112       5.049       4.979       4.900       4.827       4.684       4.467       4.211       3.843    
        3.436       2.907       2.393       1.947       1.529       1.205      0.9191      0.6250      0.2784       0.000    
  15    10.00       9.871       9.729       9.590       9.478       9.400       9.338       9.275       9.188       9.071    
        8.915       8.755       8.609       8.394       8.141       7.888       7.621       7.338       6.993       6.663    
        6.406       6.166       5.957       5.803       5.690       5.600       5.490       5.358       5.268       5.215    
        5.151       5.093       5.044       4.979       4.905       4.827       4.675       4.469       4.147       3.749    
        3.327       2.851       2.434       1.974       1.622       1.276      0.9306      0.6191      0.2539       0.000    
  16    10.00       9.850       9.696       9.569       9.473       9.401       9.337       9.280       9.195       9.074    
        8.928       8.775       8.594       8.324       8.046       7.836       7.574       7.195       6.800       6.493    
        6.227       6.026       5.856       5.724       5.601       5.519       5.398       5.290       5.221       5.161    
        5.114       5.077       5.025       4.966       4.900       4.810       4.670       4.421       4.070       3.709    
        3.347       2.889       2.420       2.014       1.682       1.318      0.9279      0.5548      0.2089       0.000    
  17    10.00       9.830       9.676       9.573       9.488       9.415       9.353       9.288       9.196       9.083    
        8.947       8.755       8.508       8.216       7.983       7.784       7.464       7.039       6.637       6.340    
        6.126       5.901       5.712       5.573       5.470       5.368       5.262       5.194       5.138       5.104    
        5.086       5.051       4.998       4.938       4.871       4.774       4.610       4.393       4.110       3.730    
        3.317       2.833       2.400       2.041       1.701       1.328      0.9476      0.5781      0.2444       0.000    
  18    10.00       9.820       9.675       9.587       9.510       9.440       9.378       9.299       9.209       9.087    
        8.925       8.698       8.424       8.176       7.948       7.657       7.285       6.896       6.541       6.249    
        5.985       5.697       5.533       5.417       5.328       5.212       5.143       5.085       5.049       5.051    
        5.042       5.012       4.959       4.893       4.823       4.720       4.563       4.386       4.140       3.791    
        3.254       2.739       2.385       2.043       1.754       1.362      0.9423      0.5668      0.2442       0.000    
  19    10.00       9.828       9.707       9.616       9.534       9.464       9.391       9.318       9.235       9.095    
        8.903       8.661       8.389       8.114       7.812       7.496       7.151       6.776       6.418       6.108    
        5.802       5.550       5.418       5.328       5.202       5.099       5.041       4.989       4.978       4.979    
        4.981       4.961       4.900       4.839       4.781       4.702       4.553       4.360       4.112       3.702    
        3.162       2.724       2.371       2.035       1.711       1.306      0.9051      0.5634      0.2655       0.000    
  20    10.00       9.838       9.735       9.655       9.576       9.493       9.406       9.328       9.244       9.101    
        8.893       8.641       8.326       7.968       7.621       7.363       7.015       6.611       6.297       5.988    
        5.715       5.505       5.346       5.209       5.049       4.977       4.938       4.912       4.915       4.914    
        4.917       4.890       4.839       4.802       4.753       4.671       4.502       4.307       4.023       3.564    
        3.098       2.749       2.340       1.957       1.604       1.205      0.9078      0.5594      0.2480       0.000    
  21    10.00       9.861       9.769       9.688       9.602       9.522       9.427       9.342       9.251       9.091    
        8.867       8.559       8.165       7.746       7.422       7.186       6.859       6.563       6.268       5.934    
        5.673       5.442       5.243       4.984       4.851       4.814       4.758       4.794       4.827       4.824    
        4.820       4.792       4.779       4.758       4.717       4.605       4.437       4.267       3.856       3.378    
        3.031       2.653       2.237       1.880       1.506       1.157      0.8219      0.4928      0.2476       0.000    
  22    10.00       9.891       9.794       9.707       9.623       9.548       9.440       9.330       9.224       9.058    
        8.784       8.397       7.953       7.559       7.280       7.033       6.783       6.569       6.244       5.917    
        5.643       5.313       4.954       4.683       4.583       4.486       4.499       4.602       4.642       4.664    
        4.682       4.679       4.698       4.707       4.668       4.552       4.382       4.069       3.601       3.295    
        2.922       2.515       2.141       1.798       1.479       1.065      0.7132      0.4725      0.2656       0.000    
  23    10.00       9.893       9.799       9.720       9.632       9.533       9.410       9.311       9.218       9.009    
        8.673       8.257       7.851       7.507       7.221       7.011       6.776       6.495       6.184       5.923    
        5.542       5.058       4.674       4.397       3.992       3.993       4.210       4.332       4.421       4.507    
        4.546       4.578       4.612       4.637       4.600       4.483       4.234       3.872       3.490       3.115    
        2.759       2.423       2.063       1.792       1.388      0.9679      0.6937      0.4543      0.2359       0.000    
  24    10.00       9.916       9.810       9.706       9.604       9.491       9.381       9.295       9.191       8.945    
        8.562       8.169       7.833       7.532       7.259       6.985       6.697       6.441       6.194       5.887    
        5.432       4.952       4.495       3.661       2.770       3.290       3.791       4.083       4.246       4.381    
        4.454       4.500       4.544       4.552       4.512       4.361       4.083       3.785       3.364       2.964    
        2.686       2.362       2.022       1.675       1.242      0.8980      0.6672      0.4255      0.1878       0.000    
  25    10.00       9.909       9.786       9.659       9.539       9.436       9.352       9.267       9.138       8.883    
        8.481       8.114       7.856       7.576       7.260       6.976       6.705       6.482       6.253       5.858    
        5.337       4.864       4.133       2.777     -5.7604E-02   2.679       3.468       3.930       4.173       4.313    
        4.397       4.452       4.490       4.484       4.430       4.262       3.967       3.618       3.276       2.937    
        2.619       2.269       1.881       1.516       1.105      0.8245      0.6644      0.4136      0.1533       0.000    
  26    10.00       9.886       9.728       9.585       9.489       9.405       9.322       9.217       9.065       8.750    
        8.375       8.118       7.871       7.591       7.296       7.022       6.768       6.547       6.259       5.840    
        5.381       4.859       4.220       3.488       2.814       3.171       3.642       3.966       4.164       4.293    
        4.373       4.429       4.449       4.430       4.352       4.151       3.823       3.541       3.266       2.902    
        2.572       2.176       1.732       1.340       1.005      0.8068      0.6283      0.3685      0.1568       0.000    
  27    10.00       9.861       9.692       9.559       9.478       9.369       9.259       9.125       8.922       8.621    
        8.356       8.129       7.877       7.604       7.314       7.098       6.923       6.625       6.262       5.834    
        5.445       5.067       4.554       4.072       3.691       3.751       3.931       4.091       4.216       4.308    
        4.389       4.433       4.434       4.393       4.286       4.056       3.795       3.548       3.229       2.887    
        2.546       2.068       1.560       1.192      0.9587      0.7934      0.5973      0.3895      0.1878       0.000    
  28    10.00       9.842       9.719       9.570       9.431       9.297       9.175       9.017       8.814       8.580    
        8.361       8.158       7.908       7.604       7.346       7.172       6.977       6.649       6.228       5.850    
        5.574       5.293       4.890       4.516       4.275       4.195       4.190       4.238       4.318       4.391    
        4.441       4.449       4.433       4.368       4.228       4.020       3.811       3.521       3.190       2.846    
        2.430       1.981       1.476       1.111      0.9480      0.7901      0.6157      0.4067      0.1886       0.000    
  29    10.00       9.847       9.694       9.536       9.369       9.240       9.102       8.926       8.754       8.568    
        8.373       8.171       7.928       7.671       7.451       7.245       6.985       6.619       6.235       5.942    
        5.708       5.461       5.132       4.799       4.602       4.494       4.427       4.424       4.460       4.482    
        4.482       4.471       4.434       4.344       4.185       4.007       3.814       3.544       3.177       2.742    
        2.362       1.884       1.381       1.095      0.9510      0.7956      0.6109      0.3972      0.1975       0.000    
  30    10.00       9.825       9.670       9.480       9.311       9.192       9.045       8.890       8.756       8.590    
        8.389       8.171       7.948       7.744       7.548       7.316       6.984       6.644       6.337       6.059    
        5.858       5.615       5.315       5.027       4.790       4.693       4.629       4.602       4.577       4.552    
        4.523       4.493       4.434       4.318       4.172       4.032       3.839       3.492       3.039       2.595    
        2.210       1.772       1.389       1.124      0.9725      0.7973      0.6001      0.4163      0.2042       0.000    
  31    10.00       9.802       9.623       9.441       9.288       9.165       9.025       8.887       8.755       8.592    
        8.393       8.173       7.981       7.812       7.627       7.366       7.038       6.743       6.503       6.257    
        6.043       5.770       5.474       5.231       4.990       4.833       4.767       4.703       4.655       4.605    
        4.565       4.510       4.429       4.315       4.175       4.018       3.714       3.326       2.949       2.517    
        2.153       1.717       1.344       1.153      0.9903      0.8254      0.6202      0.4168      0.1975       0.000    
  32    10.00       9.787       9.594       9.438       9.309       9.186       9.039       8.883       8.722       8.568    
        8.372       8.181       8.011       7.823       7.652       7.429       7.176       6.955       6.708       6.454    
        6.240       5.984       5.687       5.426       5.175       4.952       4.864       4.782       4.714       4.642    
        4.586       4.533       4.425       4.284       4.152       3.934       3.557       3.193       2.862       2.468    
        2.045       1.639       1.365       1.218       1.041      0.8324      0.6154      0.3959      0.1975       0.000    
  33    10.00       9.780       9.615       9.490       9.361       9.218       9.042       8.868       8.695       8.519    
        8.356       8.195       8.026       7.848       7.657       7.485       7.300       7.112       6.910       6.662    
        6.413       6.173       5.923       5.620       5.310       5.057       4.927       4.845       4.759       4.670    
        4.603       4.526       4.408       4.273       4.082       3.780       3.394       3.087       2.769       2.311    
        1.927       1.662       1.445       1.270       1.068      0.8486      0.5828      0.3482      0.1569       0.000    
  34    10.00       9.799       9.664       9.547       9.404       9.228       9.042       8.839       8.648       8.501    
        8.355       8.208       8.056       7.872       7.704       7.537       7.377       7.228       7.034       6.783    
        6.547       6.330       6.083       5.768       5.428       5.145       4.978       4.879       4.784       4.683    
        4.596       4.511       4.394       4.224       3.990       3.618       3.243       2.969       2.591       2.188    
        1.953       1.778       1.570       1.344       1.078      0.7696      0.4709      0.2788      0.1156       0.000    
  35    10.00       9.832       9.711       9.591       9.439       9.240       9.028       8.802       8.621       8.494    
        8.397       8.250       8.081       7.885       7.706       7.587       7.470       7.317       7.117       6.877    
        6.653       6.438       6.210       5.855       5.470       5.199       5.017       4.904       4.794       4.679    
        4.592       4.492       4.353       4.129       3.764       3.377       3.129       2.844       2.460       2.219    
        2.055       1.857       1.647       1.427       1.091      0.6543      0.3616      0.2377      0.1206       0.000    
  36    10.00       9.852       9.746       9.632       9.470       9.234       8.975       8.762       8.633       8.535    
        8.402       8.234       8.079       7.906       7.749       7.632       7.520       7.384       7.226       7.004    
        6.771       6.545       6.264       5.881       5.501       5.227       5.053       4.920       4.783       4.669    
        4.568       4.441       4.218       3.882       3.549       3.285       3.053       2.756       2.452       2.292    
        2.126       1.949       1.737       1.453      0.9947      0.5509      0.3396      0.2173      0.1117       0.000    
  37    10.00       9.868       9.786       9.662       9.446       9.188       8.960       8.794       8.687       8.569    
        8.397       8.218       8.084       7.935       7.789       7.676       7.573       7.447       7.281       7.088    
        6.898       6.650       6.298       5.934       5.572       5.262       5.051       4.884       4.758       4.637    
        4.513       4.323       3.989       3.686       3.454       3.227       2.989       2.756       2.539       2.362    
        2.202       2.003       1.762       1.389      0.9115      0.5311      0.3181      0.2021      0.1014       0.000    
  38    10.00       9.887       9.789       9.653       9.429       9.163       8.970       8.847       8.736       8.598    
        8.415       8.227       8.096       7.958       7.813       7.700       7.611       7.501       7.337       7.170    
        6.995       6.709       6.308       5.914       5.554       5.249       5.018       4.832       4.708       4.595    
        4.427       4.112       3.819       3.631       3.403       3.179       3.008       2.812       2.615       2.445    
        2.256       1.985       1.679       1.275      0.8007      0.5088      0.3579      0.2230      0.1001       0.000    
  39    10.00       9.886       9.774       9.632       9.416       9.175       9.001       8.892       8.755       8.602    
        8.454       8.265       8.114       7.984       7.844       7.724       7.623       7.515       7.384       7.233    
        7.027       6.720       6.302       5.860       5.489       5.204       4.941       4.749       4.655       4.545    
        4.282       3.960       3.780       3.566       3.354       3.196       3.055       2.877       2.686       2.526    
        2.253       1.869       1.510       1.073      0.7141      0.5512      0.4103      0.2672      0.1375       0.000    
  40    10.00       9.877       9.778       9.634       9.435       9.233       9.063       8.919       8.757       8.617    
        8.506       8.322       8.132       7.999       7.870       7.734       7.623       7.537       7.422       7.240    
        7.001       6.647       6.222       5.806       5.427       5.130       4.832       4.682       4.597       4.449    
        4.212       3.975       3.732       3.511       3.363       3.228       3.093       2.928       2.751       2.542    
        2.173       1.754       1.365       1.012      0.7661      0.5982      0.4579      0.3232      0.1587       0.000    
  41    10.00       9.894       9.815       9.675       9.469       9.260       9.097       8.968       8.809       8.642    
        8.510       8.341       8.166       8.041       7.890       7.729       7.633       7.540       7.389       7.189    
        6.942       6.595       6.168       5.763       5.385       4.986       4.712       4.632       4.539       4.430    
        4.243       3.958       3.715       3.541       3.394       3.274       3.127       2.968       2.786       2.460    
        2.027       1.619       1.282       1.022      0.8091      0.6533      0.5033      0.3556      0.1872       0.000    
  42    10.00       9.920       9.833       9.698       9.522       9.321       9.138       9.004       8.861       8.677    
        8.507       8.346       8.197       8.077       7.919       7.747       7.631       7.504       7.339       7.110    
        6.826       6.445       6.072       5.669       5.177       4.825       4.684       4.621       4.542       4.424    
        4.206       3.957       3.731       3.556       3.438       3.310       3.180       3.008       2.718       2.286    
        1.908       1.604       1.311       1.017      0.8194      0.6870      0.5432      0.3702      0.2054       0.000    
  43    10.00       9.937       9.843       9.705       9.530       9.364       9.201       9.051       8.874       8.683    
        8.527       8.365       8.217       8.106       7.957       7.764       7.609       7.464       7.238       6.946    
        6.668       6.302       5.957       5.495       5.032       4.803       4.693       4.620       4.545       4.422    
        4.214       3.988       3.771       3.601       3.488       3.361       3.190       2.946       2.521       2.138    
        1.903       1.634       1.325       1.020      0.8113      0.6889      0.5780      0.4004      0.1876       0.000    
  44    10.00       9.930       9.850       9.706       9.547       9.427       9.262       9.059       8.857       8.699    
        8.543       8.380       8.250       8.134       7.960       7.753       7.574       7.401       7.134       6.842    
        6.510       6.144       5.779       5.318       4.972       4.803       4.709       4.646       4.564       4.409    
        4.198       4.016       3.826       3.668       3.552       3.378       3.151       2.801       2.369       2.117    
        1.901       1.620       1.313       1.034      0.8213      0.6909      0.5784      0.3922      0.1728       0.000    
  45    10.00       9.915       9.819       9.703       9.587       9.433       9.260       9.066       8.866       8.706    
        8.545       8.397       8.283       8.149       7.958       7.736       7.536       7.340       7.050       6.708    
        6.326       5.940       5.547       5.209       4.971       4.829       4.738       4.671       4.567       4.440    
        4.258       4.052       3.882       3.719       3.554       3.370       3.121       2.747       2.374       2.079    
        1.833       1.569       1.282       1.033      0.8471      0.7389      0.5710      0.3399      0.1549       0.000    
  46    10.00       9.898       9.798       9.705       9.574       9.397       9.229       9.070       8.873       8.703    
        8.559       8.422       8.307       8.146       7.943       7.745       7.533       7.276       6.963       6.591    
        6.143       5.760       5.447       5.191       5.011       4.885       4.773       4.682       4.601       4.459    
        4.265       4.087       3.920       3.733       3.569       3.393       3.113       2.683       2.291       2.028    
        1.798       1.544       1.274       1.056      0.9121      0.7728      0.5178      0.2545      0.1107       0.000    
  47    10.00       9.891       9.790       9.662       9.509       9.364       9.219       9.047       8.868       8.715    
        8.584       8.462       8.299       8.124       7.942       7.749       7.516       7.216       6.924       6.472    
        5.987       5.689       5.420       5.220       5.052       4.929       4.817       4.706       4.611       4.465    
        4.262       4.086       3.917       3.741       3.599       3.387       2.998       2.612       2.285       2.005    
        1.803       1.563       1.323       1.112      0.9342      0.7091      0.4261      0.2227      9.2746E-02   0.000    
  48    10.00       9.879       9.757       9.621       9.482       9.353       9.207       9.049       8.883       8.733    
        8.600       8.456       8.277       8.098       7.919       7.728       7.504       7.223       6.859       6.411    
        5.992       5.687       5.425       5.241       5.105       4.954       4.839       4.748       4.630       4.431    
        4.233       4.061       3.906       3.775       3.589       3.308       2.938       2.591       2.280       2.034    
        1.816       1.588       1.372       1.133      0.8664      0.5762      0.3642      0.2160      9.7592E-02   0.000    
  49    10.00       9.868       9.736       9.602       9.488       9.355       9.199       9.045       8.911       8.755    
        8.595       8.414       8.238       8.088       7.884       7.698       7.512       7.197       6.837       6.481    
        6.039       5.699       5.438       5.278       5.118       4.954       4.866       4.778       4.590       4.351    
        4.180       4.043       3.931       3.761       3.544       3.293       2.924       2.577       2.334       2.072    
        1.816       1.606       1.375       1.094      0.7672      0.5137      0.3643      0.2351      0.1206       0.000    
  50    10.00       9.873       9.740       9.604       9.480       9.349       9.211       9.059       8.917       8.778    
        8.582       8.393       8.232       8.030       7.823       7.681       7.504       7.259       6.904       6.551    
        6.101       5.672       5.446       5.283       5.116       4.983       4.877       4.759       4.536       4.309    
        4.168       4.055       3.924       3.748       3.547       3.307       2.934       2.578       2.342       2.106    
        1.862       1.598       1.339       1.038      0.7152      0.5257      0.3920      0.2657      0.1602       0.000    

 HEAD WILL BE SAVED ON UNIT   51 AT END OF TIME STEP  50, STRESS PERIOD    2

 DRAWDOWN WILL BE SAVED ON UNIT   52 AT END OF TIME STEP  50, STRESS PERIOD    2
1
  VOLUMETRIC BUDGET FOR ENTIRE MODEL AT END OF TIME STEP 50 IN STRESS PERIOD   2
  ------------------------------------------------------------------------------

     CUMULATIVE VOLUMES      L**3       RATES FOR THIS TIME STEP      L**3/T
     ------------------                 ------------------------

           IN:                                      IN:
           ---                                      ---
             STORAGE =       24774.4629               STORAGE =         481.8618
       CONSTANT HEAD =       19205.7148         CONSTANT HEAD =         388.9328
               WELLS =           0.0000                 WELLS =           0.0000

            TOTAL IN =       43980.1797              TOTAL IN =         870.7946

          OUT:                                     OUT:
          ----                                     ----
             STORAGE =       1.1143E-02               STORAGE =           0.0000
       CONSTANT HEAD =       18980.1660         CONSTANT HEAD =         370.7946
               WELLS =       25000.0000                 WELLS =         500.0000

           TOTAL OUT =       43980.1758             TOTAL OUT =         870.7946

            IN - OUT =       3.9063E-03              IN - OUT =       6.1035E-05

 PERCENT DISCREPANCY =           0.00     PERCENT DISCREPANCY =           0.00






          TIME SUMMARY AT END OF TIME STEP  50 IN STRESS PERIOD    2
                    SECONDS     MINUTES      HOURS       DAYS        YEARS
                    -----------------------------------------------------------
   TIME STEP LENGTH  86400.      1440.0      24.000      1.0000     2.73785E-03
 STRESS PERIOD TIME 4.32000E+06  72000.      1200.0      50.000     0.13689    
         TOTAL TIME 4.40640E+06  73440.      1224.0      51.000     0.13963    
1
 
 SOLVING FOR HEAD 

 OUTPUT CONTROL FOR STRESS PERIOD    2   TIME STEP  51
    SAVE HEAD FOR ALL LAYERS
    SAVE DRAWDOWN FOR ALL LAYERS
    SAVE BUDGET
    PRINT HEAD FOR ALL LAYERS
    PRINT BUDGET
 UBDSV1 SAVING "         STORAGE" ON UNIT  53 AT TIME STEP 51, STRESS PERIOD   2
 UBDSV2 SAVING "   CONSTANT HEAD" ON UNIT  53 AT TIME STEP 51, STRESS PERIOD   2
 UBDSV1 SAVING "FLOW RIGHT FACE " ON UNIT  53 AT TIME STEP 51, STRESS PERIOD   2
 UBDSV1 SAVING "FLOW FRONT FACE " ON UNIT  53 AT TIME STEP 51, STRESS PERIOD   2
1
              HEAD IN LAYER   1 AT END OF TIME STEP  51 IN STRESS PERIOD    2
  ---------------------------------------------------------------------------

            1           2           3           4           5           6           7           8           9          10
           11          12          13          14          15          16          17          18          19          20
           21          22          23          24          25          26          27          28          29          30
           31          32          33          34          35          36          37          38          39          40
           41          42          43          44          45          46          47          48          49          50
 ........................................................................................................................
   1    10.00       9.952       9.905       9.849       9.805       9.767       9.718       9.649       9.574       9.504    
        9.352       9.161       9.019       8.862       8.694       8.525       8.368       8.187       7.945       7.704    
        7.540       7.352       7.104       6.853       6.629       6.433       6.154       5.900       5.720       5.532    
        5.369       5.264       5.150       5.021       4.896       4.742       4.576       4.351       4.093       3.811    
        3.448       3.078       2.592       2.061       1.663       1.375       1.161      0.9153      0.5373       0.000    
   2    10.00       9.947       9.896       9.849       9.812       9.776       9.720       9.650       9.581       9.488    
        9.338       9.167       9.009       8.865       8.710       8.535       8.349       8.162       7.937       7.694    
        7.515       7.361       7.097       6.825       6.625       6.404       6.135       5.892       5.686       5.508    
        5.371       5.274       5.177       5.039       4.893       4.740       4.549       4.340       4.090       3.769    
        3.428       3.113       2.604       2.077       1.723       1.467       1.220      0.9453      0.5707       0.000    
   3    10.00       9.939       9.896       9.863       9.828       9.790       9.731       9.647       9.563       9.462    
        9.326       9.175       9.022       8.877       8.693       8.474       8.291       8.130       7.923       7.710    
        7.526       7.306       7.045       6.806       6.589       6.341       6.083       5.843       5.631       5.498    
        5.386       5.293       5.196       5.044       4.891       4.728       4.539       4.305       4.026       3.780    
        3.478       3.049       2.552       2.173       1.872       1.575       1.270      0.9581      0.5409       0.000    
   4    10.00       9.939       9.901       9.872       9.847       9.807       9.739       9.642       9.543       9.442    
        9.313       9.177       9.024       8.842       8.615       8.412       8.281       8.100       7.900       7.733    
        7.482       7.202       6.973       6.760       6.550       6.254       5.968       5.776       5.631       5.518    
        5.417       5.319       5.214       5.037       4.849       4.701       4.501       4.259       4.021       3.805    
        3.463       2.989       2.614       2.295       1.972       1.634       1.267      0.9020      0.4622       0.000    
   5    10.00       9.944       9.909       9.880       9.857       9.817       9.744       9.634       9.524       9.422    
        9.313       9.172       8.976       8.763       8.572       8.411       8.248       8.079       7.891       7.656    
        7.364       7.134       6.943       6.727       6.457       6.150       5.915       5.779       5.660       5.544    
        5.428       5.309       5.189       5.019       4.827       4.648       4.469       4.278       4.061       3.777    
        3.389       3.028       2.707       2.385       2.032       1.638       1.178      0.7595      0.3933       0.000    
   6    10.00       9.953       9.919       9.891       9.860       9.815       9.738       9.619       9.523       9.414    
        9.291       9.118       8.903       8.726       8.549       8.366       8.200       8.048       7.838       7.572    
        7.313       7.092       6.897       6.630       6.338       6.105       5.914       5.787       5.655       5.535    
        5.433       5.302       5.152       4.977       4.790       4.636       4.481       4.307       4.079       3.772    
        3.433       3.084       2.756       2.431       2.048       1.572       1.077      0.7142      0.3677       0.000    
   7    10.00       9.960       9.930       9.900       9.867       9.812       9.709       9.595       9.495       9.361    
        9.235       9.050       8.855       8.673       8.491       8.305       8.143       8.004       7.763       7.479    
        7.245       7.021       6.803       6.544       6.296       6.083       5.916       5.763       5.622       5.529    
        5.424       5.280       5.121       4.944       4.783       4.647       4.502       4.324       4.091       3.812    
        3.474       3.116       2.775       2.416       2.038       1.539       1.030      0.6802      0.3219       0.000    
   8    10.00       9.966       9.940       9.907       9.869       9.782       9.656       9.548       9.422       9.295    
        9.155       8.966       8.800       8.615       8.412       8.230       8.089       7.924       7.696       7.420    
        7.148       6.942       6.762       6.496       6.237       6.047       5.858       5.694       5.597       5.507    
        5.381       5.238       5.104       4.948       4.780       4.639       4.529       4.393       4.165       3.844    
        3.475       3.156       2.837       2.420       1.998       1.440      0.9539      0.6663      0.3084       0.000    
   9    10.00       9.973       9.944       9.906       9.842       9.727       9.594       9.467       9.357       9.226    
        9.061       8.893       8.728       8.550       8.341       8.170       8.038       7.843       7.618       7.337    
        7.101       6.896       6.641       6.369       6.150       5.981       5.791       5.653       5.559       5.456    
        5.342       5.213       5.086       4.950       4.806       4.671       4.560       4.439       4.203       3.855    
        3.516       3.232       2.896       2.494       1.870       1.240      0.9088      0.5635      0.2150       0.000    
  10    10.00       9.973       9.942       9.890       9.792       9.656       9.507       9.409       9.305       9.150    
        9.005       8.839       8.675       8.482       8.288       8.135       7.958       7.755       7.518       7.290    
        7.058       6.745       6.482       6.267       6.081       5.929       5.754       5.612       5.519       5.433    
        5.313       5.174       5.060       4.935       4.808       4.716       4.606       4.465       4.195       3.850    
        3.585       3.335       2.950       2.343       1.621       1.164      0.8249      0.5037      0.2513       0.000    
  11    10.00       9.974       9.932       9.852       9.741       9.588       9.457       9.375       9.250       9.118    
        8.980       8.805       8.608       8.402       8.239       8.074       7.908       7.690       7.459       7.235    
        6.905       6.603       6.393       6.200       6.019       5.850       5.685       5.574       5.496       5.411    
        5.274       5.144       5.050       4.938       4.835       4.732       4.607       4.455       4.201       3.925    
        3.645       3.319       2.900       2.231       1.555       1.094      0.7731      0.5865      0.3240       0.000    
  12    10.00       9.972       9.914       9.810       9.665       9.514       9.410       9.328       9.219       9.099    
        8.948       8.762       8.565       8.382       8.215       8.033       7.842       7.619       7.385       7.080    
        6.754       6.525       6.318       6.120       5.922       5.753       5.637       5.554       5.454       5.345    
        5.223       5.127       5.044       4.956       4.864       4.762       4.627       4.442       4.207       3.958    
        3.658       3.304       2.730       1.977       1.402       1.078      0.8584      0.6224      0.3548       0.000    
  13    10.00       9.962       9.873       9.731       9.580       9.450       9.366       9.293       9.201       9.086    
        8.926       8.733       8.551       8.405       8.212       7.987       7.764       7.522       7.261       6.964    
        6.678       6.430       6.205       6.001       5.810       5.687       5.613       5.496       5.368       5.270    
        5.192       5.117       5.042       4.968       4.881       4.791       4.669       4.458       4.217       3.923    
        3.578       3.130       2.464       1.854       1.436       1.159      0.9025      0.6240      0.3083       0.000    
  14    10.00       9.931       9.803       9.647       9.507       9.404       9.348       9.281       9.193       9.066    
        8.890       8.725       8.576       8.423       8.205       7.941       7.700       7.427       7.136       6.826    
        6.549       6.301       6.078       5.877       5.728       5.643       5.552       5.411       5.302       5.229    
        5.173       5.101       5.039       4.969       4.891       4.819       4.676       4.460       4.205       3.838    
        3.431       2.904       2.391       1.945       1.528       1.204      0.9186      0.6247      0.2783       0.000    
  15    10.00       9.871       9.729       9.589       9.477       9.398       9.336       9.273       9.186       9.068    
        8.912       8.752       8.605       8.390       8.135       7.881       7.613       7.330       6.983       6.653    
        6.395       6.155       5.945       5.791       5.678       5.589       5.478       5.346       5.257       5.204    
        5.140       5.082       5.034       4.969       4.895       4.817       4.666       4.461       4.140       3.744    
        3.323       2.848       2.432       1.973       1.621       1.275      0.9301      0.6188      0.2538       0.000    
  16    10.00       9.850       9.695       9.568       9.471       9.399       9.335       9.278       9.193       9.071    
        8.925       8.771       8.590       8.318       8.040       7.829       7.566       7.186       6.790       6.482    
        6.216       6.014       5.844       5.712       5.588       5.507       5.385       5.278       5.209       5.149    
        5.103       5.066       5.014       4.955       4.889       4.800       4.661       4.413       4.064       3.703    
        3.343       2.885       2.417       2.012       1.681       1.317      0.9274      0.5546      0.2088       0.000    
  17    10.00       9.830       9.675       9.572       9.486       9.413       9.351       9.286       9.194       9.080    
        8.943       8.751       8.503       8.210       7.976       7.776       7.455       7.028       6.625       6.328    
        6.113       5.888       5.699       5.559       5.457       5.355       5.249       5.181       5.125       5.092    
        5.074       5.039       4.986       4.927       4.860       4.764       4.601       4.385       4.102       3.725    
        3.313       2.830       2.397       2.039       1.700       1.327      0.9471      0.5778      0.2443       0.000    
  18    10.00       9.820       9.674       9.586       9.508       9.438       9.376       9.297       9.207       9.084    
        8.921       8.693       8.418       8.169       7.940       7.648       7.275       6.884       6.529       6.236    
        5.972       5.684       5.519       5.403       5.314       5.198       5.129       5.071       5.036       5.038    
        5.029       4.999       4.947       4.881       4.811       4.709       4.553       4.377       4.133       3.785    
        3.250       2.736       2.382       2.041       1.753       1.361      0.9418      0.5666      0.2441       0.000    
  19    10.00       9.828       9.706       9.615       9.533       9.463       9.389       9.316       9.233       9.091    
        8.899       8.656       8.383       8.107       7.803       7.486       7.141       6.764       6.405       6.095    
        5.788       5.535       5.404       5.314       5.188       5.085       5.027       4.975       4.964       4.965    
        4.968       4.949       4.888       4.827       4.770       4.691       4.543       4.351       4.104       3.696    
        3.158       2.721       2.368       2.034       1.710       1.305      0.9047      0.5631      0.2654       0.000    
  20    10.00       9.837       9.734       9.654       9.574       9.491       9.404       9.326       9.242       9.098    
        8.889       8.636       8.319       7.960       7.611       7.352       7.004       6.599       6.284       5.974    
        5.701       5.491       5.331       5.194       5.034       4.962       4.924       4.897       4.901       4.900    
        4.903       4.876       4.826       4.790       4.741       4.660       4.492       4.298       4.016       3.558    
        3.094       2.746       2.338       1.956       1.603       1.205      0.9074      0.5592      0.2480       0.000    
  21    10.00       9.861       9.768       9.687       9.600       9.521       9.425       9.340       9.249       9.087    
        8.862       8.553       8.158       7.737       7.412       7.175       6.847       6.550       6.254       5.920    
        5.659       5.428       5.228       4.969       4.836       4.799       4.743       4.779       4.812       4.810    
        4.806       4.777       4.765       4.745       4.704       4.594       4.427       4.258       3.849       3.373    
        3.027       2.651       2.235       1.879       1.505       1.156      0.8216      0.4927      0.2475       0.000    
  22    10.00       9.891       9.793       9.706       9.621       9.546       9.438       9.327       9.221       9.055    
        8.779       8.391       7.944       7.549       7.269       7.021       6.771       6.556       6.230       5.902    
        5.628       5.298       4.939       4.668       4.568       4.470       4.483       4.586       4.627       4.648    
        4.666       4.664       4.683       4.693       4.655       4.540       4.371       4.060       3.594       3.290    
        2.918       2.513       2.139       1.797       1.478       1.064      0.7129      0.4723      0.2655       0.000    
  23    10.00       9.892       9.798       9.719       9.631       9.531       9.408       9.308       9.215       9.005    
        8.668       8.249       7.842       7.496       7.209       7.000       6.763       6.482       6.170       5.908    
        5.527       5.042       4.658       4.381       3.976       3.977       4.194       4.316       4.405       4.491    
        4.530       4.562       4.597       4.622       4.586       4.471       4.224       3.865       3.484       3.110    
        2.756       2.420       2.061       1.791       1.387      0.9675      0.6934      0.4541      0.2358       0.000    
  24    10.00       9.916       9.809       9.705       9.603       9.489       9.378       9.293       9.188       8.941    
        8.556       8.161       7.824       7.522       7.248       6.973       6.684       6.427       6.180       5.873    
        5.417       4.936       4.479       3.644       2.753       3.274       3.774       4.066       4.230       4.365    
        4.437       4.484       4.528       4.536       4.498       4.348       4.073       3.777       3.358       2.960    
        2.683       2.360       2.020       1.674       1.242      0.8976      0.6670      0.4254      0.1877       0.000    
  25    10.00       9.908       9.785       9.658       9.538       9.434       9.350       9.264       9.135       8.878    
        8.475       8.106       7.847       7.566       7.249       6.964       6.692       6.468       6.239       5.844    
        5.321       4.848       4.117       2.760     -7.5726E-02   2.661       3.451       3.913       4.156       4.297    
        4.381       4.436       4.474       4.469       4.415       4.250       3.957       3.611       3.270       2.932    
        2.616       2.267       1.880       1.515       1.105      0.8241      0.6641      0.4134      0.1532       0.000    
  26    10.00       9.885       9.727       9.584       9.487       9.403       9.320       9.214       9.062       8.745    
        8.368       8.111       7.862       7.581       7.285       7.010       6.756       6.534       6.245       5.825    
        5.366       4.844       4.204       3.471       2.797       3.154       3.625       3.949       4.147       4.277    
        4.356       4.413       4.433       4.414       4.338       4.139       3.813       3.534       3.260       2.898    
        2.569       2.174       1.731       1.339       1.004      0.8064      0.6280      0.3683      0.1568       0.000    
  27    10.00       9.860       9.691       9.558       9.476       9.367       9.257       9.122       8.918       8.616    
        8.350       8.121       7.868       7.595       7.304       7.086       6.911       6.612       6.248       5.820    
        5.429       5.052       4.538       4.056       3.675       3.734       3.914       4.074       4.199       4.291    
        4.372       4.417       4.419       4.377       4.272       4.044       3.785       3.540       3.222       2.882    
        2.543       2.066       1.559       1.191      0.9582      0.7930      0.5970      0.3893      0.1877       0.000    
  28    10.00       9.842       9.718       9.568       9.429       9.295       9.173       9.014       8.809       8.575    
        8.355       8.151       7.900       7.595       7.336       7.161       6.966       6.636       6.214       5.836    
        5.560       5.278       4.874       4.500       4.258       4.179       4.173       4.222       4.301       4.375    
        4.424       4.433       4.418       4.353       4.214       4.008       3.801       3.513       3.183       2.841    
        2.427       1.978       1.475       1.110      0.9475      0.7897      0.6154      0.4065      0.1885       0.000    
  29    10.00       9.847       9.693       9.534       9.367       9.238       9.099       8.923       8.750       8.563    
        8.367       8.164       7.920       7.662       7.441       7.234       6.974       6.607       6.222       5.928    
        5.694       5.446       5.116       4.783       4.586       4.478       4.411       4.408       4.444       4.466    
        4.466       4.455       4.419       4.330       4.172       3.995       3.804       3.536       3.171       2.737    
        2.359       1.882       1.380       1.094      0.9504      0.7952      0.6106      0.3970      0.1974       0.000    
  30    10.00       9.824       9.669       9.478       9.309       9.190       9.041       8.886       8.752       8.585    
        8.383       8.164       7.941       7.735       7.538       7.306       6.973       6.632       6.324       6.046    
        5.844       5.600       5.300       5.011       4.774       4.677       4.613       4.586       4.561       4.536    
        4.507       4.478       4.420       4.304       4.160       4.021       3.829       3.484       3.033       2.591    
        2.207       1.770       1.388       1.124      0.9719      0.7968      0.5997      0.4161      0.2041       0.000    
  31    10.00       9.801       9.622       9.439       9.286       9.162       9.021       8.884       8.750       8.587    
        8.388       8.166       7.974       7.804       7.618       7.356       7.028       6.732       6.491       6.244    
        6.030       5.755       5.460       5.216       4.974       4.817       4.751       4.687       4.640       4.590    
        4.550       4.496       4.415       4.302       4.163       4.007       3.704       3.319       2.944       2.513    
        2.151       1.715       1.343       1.152      0.9897      0.8249      0.6199      0.4165      0.1974       0.000    
  32    10.00       9.786       9.592       9.436       9.307       9.183       9.036       8.880       8.718       8.563    
        8.367       8.175       8.004       7.816       7.643       7.420       7.166       6.944       6.697       6.442    
        6.227       5.971       5.672       5.411       5.160       4.937       4.849       4.767       4.699       4.628    
        4.572       4.519       4.411       4.271       4.141       3.924       3.549       3.186       2.857       2.465    
        2.043       1.637       1.364       1.217       1.040      0.8319      0.6151      0.3956      0.1974       0.000    
  33    10.00       9.779       9.614       9.488       9.359       9.215       9.038       8.864       8.691       8.514    
        8.350       8.189       8.020       7.841       7.649       7.476       7.290       7.102       6.899       6.651    
        6.400       6.160       5.910       5.606       5.296       5.043       4.913       4.830       4.746       4.656    
        4.590       4.513       4.395       4.261       4.071       3.771       3.388       3.082       2.765       2.308    
        1.925       1.661       1.444       1.269       1.067      0.8481      0.5825      0.3480      0.1568       0.000    
  34    10.00       9.799       9.663       9.545       9.402       9.225       9.039       8.835       8.644       8.496    
        8.349       8.202       8.049       7.865       7.696       7.529       7.368       7.218       7.025       6.772    
        6.536       6.318       6.071       5.755       5.414       5.131       4.964       4.866       4.771       4.671    
        4.584       4.498       4.382       4.213       3.981       3.610       3.238       2.964       2.588       2.186    
        1.951       1.777       1.568       1.343       1.077      0.7691      0.4706      0.2787      0.1155       0.000    
  35    10.00       9.832       9.710       9.590       9.437       9.238       9.025       8.798       8.617       8.490    
        8.392       8.244       8.074       7.878       7.698       7.580       7.462       7.308       7.108       6.867    
        6.642       6.427       6.199       5.843       5.457       5.186       5.004       4.891       4.782       4.667    
        4.580       4.480       4.342       4.119       3.756       3.371       3.124       2.840       2.457       2.217    
        2.053       1.855       1.646       1.426       1.090      0.6539      0.3614      0.2376      0.1206       0.000    
  36    10.00       9.852       9.746       9.631       9.468       9.232       8.972       8.759       8.628       8.531    
        8.398       8.229       8.073       7.900       7.742       7.624       7.512       7.376       7.217       6.995    
        6.761       6.535       6.253       5.869       5.489       5.215       5.041       4.908       4.771       4.657    
        4.557       4.430       4.208       3.874       3.543       3.280       3.049       2.752       2.449       2.290    
        2.124       1.947       1.735       1.452      0.9941      0.5506      0.3394      0.2172      0.1116       0.000    
  37    10.00       9.867       9.785       9.661       9.445       9.186       8.957       8.791       8.683       8.565    
        8.393       8.213       8.078       7.929       7.782       7.669       7.566       7.440       7.272       7.079    
        6.889       6.640       6.287       5.924       5.561       5.251       5.041       4.874       4.748       4.627    
        4.503       4.314       3.982       3.680       3.449       3.223       2.986       2.753       2.537       2.360    
        2.200       2.001       1.761       1.388      0.9110      0.5308      0.3179      0.2020      0.1013       0.000    
  38    10.00       9.887       9.788       9.652       9.428       9.161       8.967       8.844       8.732       8.594    
        8.411       8.222       8.090       7.952       7.806       7.694       7.604       7.494       7.330       7.163    
        6.986       6.701       6.299       5.904       5.544       5.240       5.009       4.823       4.699       4.586    
        4.418       4.106       3.814       3.626       3.399       3.175       3.005       2.810       2.612       2.443    
        2.254       1.983       1.678       1.274      0.8003      0.5086      0.3578      0.2229      0.1000       0.000    
  39    10.00       9.886       9.773       9.632       9.414       9.173       8.998       8.889       8.752       8.599    
        8.450       8.260       8.109       7.979       7.838       7.718       7.617       7.509       7.377       7.225    
        7.019       6.713       6.295       5.852       5.481       5.196       4.934       4.743       4.648       4.538    
        4.276       3.955       3.776       3.562       3.351       3.193       3.052       2.874       2.684       2.524    
        2.251       1.867       1.509       1.072      0.7138      0.5509      0.4101      0.2670      0.1374       0.000    
  40    10.00       9.877       9.778       9.633       9.434       9.231       9.061       8.916       8.754       8.614    
        8.502       8.317       8.127       7.994       7.864       7.729       7.617       7.531       7.416       7.233    
        6.995       6.641       6.215       5.799       5.421       5.123       4.826       4.676       4.591       4.444    
        4.207       3.970       3.728       3.508       3.360       3.225       3.091       2.925       2.749       2.540    
        2.171       1.752       1.365       1.011      0.7658      0.5980      0.4578      0.3231      0.1586       0.000    
  41    10.00       9.893       9.814       9.674       9.468       9.258       9.095       8.965       8.806       8.639    
        8.507       8.338       8.161       8.036       7.886       7.723       7.627       7.535       7.383       7.183    
        6.936       6.590       6.163       5.758       5.380       4.982       4.707       4.628       4.535       4.425    
        4.239       3.954       3.712       3.538       3.392       3.271       3.124       2.966       2.784       2.458    
        2.026       1.618       1.281       1.021      0.8087      0.6530      0.5031      0.3554      0.1872       0.000    
  42    10.00       9.920       9.833       9.698       9.521       9.320       9.136       9.002       8.859       8.674    
        8.504       8.343       8.193       8.073       7.914       7.743       7.626       7.500       7.334       7.106    
        6.822       6.441       6.068       5.666       5.173       4.821       4.681       4.617       4.538       4.421    
        4.203       3.954       3.728       3.554       3.436       3.307       3.177       3.006       2.716       2.284    
        1.907       1.603       1.310       1.016      0.8191      0.6868      0.5430      0.3701      0.2054       0.000    
  43    10.00       9.937       9.843       9.704       9.529       9.363       9.199       9.049       8.872       8.681    
        8.525       8.362       8.214       8.103       7.954       7.760       7.605       7.460       7.234       6.942    
        6.665       6.299       5.954       5.493       5.030       4.800       4.690       4.617       4.542       4.419    
        4.211       3.985       3.769       3.598       3.485       3.358       3.188       2.944       2.519       2.137    
        1.902       1.633       1.325       1.020      0.8111      0.6886      0.5778      0.4003      0.1876       0.000    
  44    10.00       9.930       9.850       9.705       9.546       9.426       9.261       9.057       8.856       8.697    
        8.541       8.378       8.248       8.131       7.957       7.750       7.571       7.398       7.131       6.839    
        6.507       6.142       5.776       5.316       4.970       4.800       4.707       4.643       4.561       4.406    
        4.195       4.014       3.824       3.666       3.550       3.376       3.149       2.799       2.368       2.116    
        1.900       1.619       1.312       1.034      0.8211      0.6907      0.5783      0.3921      0.1728       0.000    
  45    10.00       9.915       9.819       9.703       9.587       9.433       9.259       9.065       8.864       8.705    
        8.543       8.395       8.281       8.147       7.956       7.734       7.534       7.338       7.048       6.706    
        6.324       5.938       5.545       5.207       4.969       4.826       4.735       4.668       4.565       4.438    
        4.255       4.050       3.880       3.717       3.552       3.368       3.119       2.746       2.373       2.078    
        1.833       1.569       1.282       1.033      0.8469      0.7387      0.5708      0.3398      0.1549       0.000    
  46    10.00       9.898       9.798       9.705       9.574       9.397       9.229       9.069       8.872       8.702    
        8.558       8.421       8.306       8.145       7.942       7.743       7.531       7.274       6.961       6.589    
        6.142       5.759       5.445       5.190       5.009       4.883       4.771       4.680       4.598       4.457    
        4.263       4.085       3.918       3.732       3.568       3.392       3.112       2.682       2.291       2.028    
        1.797       1.544       1.274       1.056      0.9119      0.7726      0.5177      0.2545      0.1107       0.000    
  47    10.00       9.891       9.790       9.662       9.509       9.364       9.219       9.047       8.867       8.715    
        8.583       8.461       8.298       8.123       7.941       7.748       7.514       7.215       6.923       6.471    
        5.986       5.687       5.418       5.218       5.050       4.927       4.815       4.704       4.609       4.463    
        4.260       4.084       3.916       3.740       3.598       3.385       2.997       2.611       2.284       2.005    
        1.803       1.563       1.323       1.112      0.9340      0.7090      0.4260      0.2227      9.2732E-02   0.000    
  48    10.00       9.879       9.757       9.621       9.482       9.353       9.206       9.049       8.882       8.733    
        8.599       8.455       8.277       8.097       7.918       7.727       7.503       7.222       6.858       6.410    
        5.991       5.685       5.424       5.240       5.104       4.952       4.838       4.746       4.628       4.430    
        4.231       4.059       3.904       3.774       3.587       3.307       2.937       2.590       2.280       2.034    
        1.816       1.588       1.372       1.133      0.8663      0.5761      0.3642      0.2160      9.7580E-02   0.000    
  49    10.00       9.868       9.736       9.601       9.488       9.355       9.199       9.044       8.910       8.754    
        8.594       8.413       8.237       8.087       7.883       7.697       7.511       7.196       6.836       6.480    
        6.038       5.698       5.437       5.276       5.116       4.953       4.864       4.777       4.588       4.349    
        4.179       4.041       3.929       3.760       3.543       3.292       2.923       2.577       2.333       2.072    
        1.815       1.606       1.375       1.094      0.7671      0.5137      0.3643      0.2351      0.1206       0.000    
  50    10.00       9.873       9.740       9.604       9.480       9.349       9.211       9.058       8.917       8.778    
        8.581       8.392       8.231       8.029       7.822       7.680       7.503       7.259       6.903       6.550    
        6.100       5.671       5.445       5.281       5.114       4.981       4.875       4.757       4.534       4.308    
        4.167       4.053       3.923       3.746       3.546       3.307       2.933       2.578       2.341       2.106    
        1.862       1.598       1.338       1.038      0.7151      0.5257      0.3919      0.2657      0.1602       0.000    

 HEAD WILL BE SAVED ON UNIT   51 AT END OF TIME STEP  51, STRESS PERIOD    2

 DRAWDOWN WILL BE SAVED ON UNIT   52 AT END OF TIME STEP  51, STRESS PERIOD    2
1
  VOLUMETRIC BUDGET FOR ENTIRE MODEL AT END OF TIME STEP 51 IN STRESS PERIOD   2
  ------------------------------------------------------------------------------

     CUMULATIVE VOLUMES      L**3       RATES FOR THIS TIME STEP      L**3/T
     ------------------                 ------------------------

           IN:                                      IN:
           ---                                      ---
             STORAGE =       25255.3125               STORAGE =         480.8491
       CONSTANT HEAD =       19595.5137         CONSTANT HEAD =         389.7982
               WELLS =           0.0000                 WELLS =           0.0000

            TOTAL IN =       44850.8281              TOTAL IN =         870.6473

          OUT:                                     OUT:
          ----                                     ----
             STORAGE =       1.1143E-02               STORAGE =           0.0000
       CONSTANT HEAD =       19350.8145         CONSTANT HEAD =         370.6477
               WELLS =       25500.0000                 WELLS =         500.0000

           TOTAL OUT =       44850.8242             TOTAL OUT =         870.6477

            IN - OUT =       3.9063E-03              IN - OUT =      -4.2725E-04

 PERCENT DISCREPANCY =           0.00     PERCENT DISCREPANCY =           0.00






          TIME SUMMARY AT END OF TIME STEP  51 IN STRESS PERIOD    2
                    SECONDS     MINUTES      HOURS       DAYS        YEARS
                    -----------------------------------------------------------
   TIME STEP LENGTH  86400.      1440.0      24.000      1.0000     2.73785E-03
 STRESS PERIOD TIME 4.40640E+06  73440.      1224.0      51.000     0.13963    
         TOTAL TIME 4.49280E+06  74880.      1248.0      52.000     0.14237    
1
 
 SOLVING FOR HEAD 

 OUTPUT CONTROL FOR STRESS PERIOD    2   TIME STEP  52
    SAVE HEAD FOR ALL LAYERS
    SAVE DRAWDOWN FOR ALL LAYERS
    SAVE BUDGET
    PRINT HEAD FOR ALL LAYERS
    PRINT BUDGET
 UBDSV1 SAVING "         STORAGE" ON UNIT  53 AT TIME STEP 52, STRESS PERIOD   2
 UBDSV2 SAVING "   CONSTANT HEAD" ON UNIT  53 AT TIME STEP 52, STRESS PERIOD   2
 UBDSV1 SAVING "FLOW RIGHT FACE " ON UNIT  53 AT TIME STEP 52, STRESS PERIOD   2
 UBDSV1 SAVING "FLOW FRONT FACE " ON UNIT  53 AT TIME STEP 52, STRESS PERIOD   2
1
              HEAD IN LAYER   1 AT END OF TIME STEP  52 IN STRESS PERIOD    2
  ---------------------------------------------------------------------------

            1           2           3           4           5           6           7           8           9          10
           11          12          13          14          15          16          17          18          19          20
           21          22          23          24          25          26          27          28          29          30
           31          32          33          34          35          36          37          38          39          40
           41          42          43          44          45          46          47          48          49          50
 ........................................................................................................................
   1    10.00       9.952       9.905       9.849       9.804       9.767       9.717       9.648       9.573       9.504    
        9.351       9.160       9.018       8.861       8.693       8.523       8.366       8.185       7.943       7.702    
        7.537       7.349       7.101       6.850       6.625       6.430       6.151       5.896       5.716       5.528    
        5.365       5.260       5.146       5.017       4.893       4.738       4.572       4.348       4.091       3.809    
        3.446       3.076       2.591       2.061       1.662       1.375       1.160      0.9150      0.5371       0.000    
   2    10.00       9.947       9.896       9.849       9.811       9.775       9.720       9.649       9.580       9.487    
        9.338       9.166       9.007       8.864       8.709       8.534       8.347       8.160       7.935       7.692    
        7.512       7.358       7.094       6.822       6.622       6.400       6.131       5.888       5.682       5.503    
        5.366       5.269       5.173       5.035       4.890       4.737       4.546       4.337       4.087       3.766    
        3.426       3.112       2.602       2.076       1.722       1.466       1.219      0.9450      0.5705       0.000    
   3    10.00       9.939       9.896       9.863       9.827       9.790       9.730       9.647       9.563       9.461    
        9.325       9.174       9.021       8.876       8.691       8.472       8.289       8.128       7.921       7.707    
        7.523       7.303       7.042       6.802       6.585       6.337       6.079       5.839       5.626       5.494    
        5.381       5.288       5.192       5.040       4.887       4.724       4.535       4.302       4.023       3.777    
        3.476       3.047       2.550       2.172       1.872       1.574       1.270      0.9578      0.5407       0.000    
   4    10.00       9.939       9.901       9.871       9.847       9.807       9.738       9.642       9.542       9.441    
        9.312       9.176       9.022       8.840       8.613       8.410       8.279       8.098       7.897       7.730    
        7.479       7.199       6.970       6.756       6.546       6.249       5.963       5.771       5.626       5.513    
        5.412       5.314       5.210       5.033       4.845       4.697       4.498       4.255       4.018       3.802    
        3.460       2.987       2.612       2.294       1.971       1.633       1.266      0.9016      0.4621       0.000    
   5    10.00       9.944       9.909       9.880       9.857       9.816       9.744       9.634       9.523       9.422    
        9.312       9.171       8.975       8.762       8.570       8.409       8.246       8.076       7.888       7.653    
        7.361       7.130       6.939       6.723       6.453       6.145       5.910       5.774       5.655       5.539    
        5.423       5.304       5.185       5.015       4.822       4.644       4.465       4.274       4.058       3.774    
        3.387       3.026       2.705       2.384       2.031       1.638       1.178      0.7592      0.3932       0.000    
   6    10.00       9.953       9.919       9.890       9.860       9.815       9.738       9.619       9.522       9.413    
        9.290       9.117       8.901       8.724       8.547       8.363       8.197       8.046       7.835       7.568    
        7.309       7.088       6.893       6.625       6.332       6.100       5.909       5.781       5.649       5.530    
        5.427       5.297       5.147       4.972       4.785       4.632       4.476       4.303       4.076       3.769    
        3.431       3.082       2.754       2.430       2.047       1.571       1.076      0.7139      0.3676       0.000    
   7    10.00       9.959       9.930       9.900       9.866       9.812       9.709       9.594       9.494       9.360    
        9.234       9.049       8.853       8.671       8.489       8.302       8.140       8.001       7.759       7.475    
        7.240       7.016       6.798       6.539       6.290       6.077       5.910       5.757       5.616       5.523    
        5.418       5.274       5.115       4.939       4.777       4.642       4.498       4.320       4.087       3.808    
        3.472       3.113       2.773       2.415       2.037       1.538       1.029      0.6799      0.3218       0.000    
   8    10.00       9.966       9.940       9.907       9.869       9.781       9.655       9.547       9.421       9.293    
        9.154       8.964       8.798       8.612       8.409       8.226       8.086       7.920       7.692       7.415    
        7.143       6.937       6.756       6.489       6.230       6.041       5.852       5.687       5.590       5.500    
        5.375       5.232       5.097       4.942       4.774       4.634       4.524       4.389       4.161       3.840    
        3.472       3.153       2.835       2.418       1.997       1.439      0.9534      0.6660      0.3082       0.000    
   9    10.00       9.973       9.944       9.906       9.842       9.727       9.593       9.466       9.356       9.224    
        9.059       8.891       8.726       8.547       8.337       8.166       8.034       7.838       7.613       7.331    
        7.095       6.890       6.634       6.361       6.142       5.973       5.784       5.645       5.551       5.448    
        5.334       5.205       5.078       4.943       4.799       4.665       4.554       4.434       4.198       3.851    
        3.512       3.229       2.894       2.492       1.869       1.239      0.9084      0.5632      0.2149       0.000    
  10    10.00       9.973       9.942       9.890       9.792       9.655       9.506       9.408       9.303       9.148    
        9.003       8.837       8.672       8.479       8.285       8.131       7.953       7.750       7.512       7.284    
        7.052       6.738       6.474       6.259       6.073       5.920       5.745       5.604       5.510       5.425    
        5.305       5.166       5.053       4.928       4.801       4.710       4.599       4.459       4.190       3.846    
        3.581       3.332       2.947       2.342       1.620       1.164      0.8245      0.5035      0.2512       0.000    
  11    10.00       9.973       9.932       9.851       9.740       9.587       9.456       9.373       9.249       9.116    
        8.978       8.802       8.605       8.398       8.235       8.069       7.903       7.685       7.453       7.229    
        6.898       6.595       6.384       6.191       6.010       5.841       5.675       5.565       5.487       5.402    
        5.265       5.136       5.042       4.930       4.827       4.725       4.600       4.449       4.195       3.920    
        3.641       3.316       2.897       2.229       1.554       1.094      0.7727      0.5862      0.3238       0.000    
  12    10.00       9.972       9.914       9.810       9.665       9.513       9.408       9.326       9.217       9.097    
        8.945       8.759       8.561       8.378       8.211       8.028       7.836       7.613       7.378       7.072    
        6.746       6.516       6.308       6.111       5.912       5.743       5.627       5.544       5.444       5.335    
        5.213       5.118       5.035       4.947       4.856       4.754       4.620       4.436       4.202       3.954    
        3.654       3.301       2.727       1.976       1.401       1.078      0.8579      0.6221      0.3546       0.000    
  13    10.00       9.962       9.872       9.730       9.579       9.448       9.364       9.291       9.199       9.083    
        8.923       8.730       8.547       8.400       8.207       7.982       7.758       7.516       7.254       6.955    
        6.669       6.420       6.195       5.990       5.799       5.676       5.602       5.485       5.357       5.260    
        5.182       5.107       5.032       4.959       4.873       4.783       4.661       4.451       4.211       3.918    
        3.574       3.127       2.462       1.853       1.435       1.159      0.9020      0.6237      0.3082       0.000    
  14    10.00       9.931       9.802       9.646       9.505       9.403       9.346       9.279       9.191       9.064    
        8.887       8.722       8.572       8.419       8.200       7.935       7.694       7.419       7.128       6.817    
        6.539       6.290       6.068       5.866       5.717       5.632       5.541       5.400       5.291       5.218    
        5.162       5.091       5.028       4.959       4.882       4.810       4.668       4.452       4.199       3.833    
        3.427       2.901       2.389       1.944       1.527       1.203      0.9181      0.6243      0.2781       0.000    
  15    10.00       9.871       9.728       9.588       9.475       9.397       9.334       9.271       9.183       9.065    
        8.909       8.748       8.600       8.385       8.129       7.875       7.606       7.322       6.974       6.643    
        6.384       6.143       5.934       5.779       5.667       5.577       5.466       5.335       5.245       5.192    
        5.129       5.072       5.023       4.959       4.886       4.808       4.657       4.453       4.134       3.739    
        3.319       2.845       2.430       1.971       1.620       1.274      0.9295      0.6184      0.2537       0.000    
  16    10.00       9.849       9.694       9.566       9.470       9.398       9.333       9.275       9.190       9.068    
        8.921       8.767       8.585       8.312       8.033       7.822       7.558       7.177       6.779       6.471    
        6.204       6.002       5.832       5.700       5.576       5.494       5.373       5.265       5.197       5.137    
        5.091       5.055       5.003       4.944       4.879       4.790       4.652       4.405       4.057       3.698    
        3.339       2.882       2.415       2.010       1.680       1.316      0.9269      0.5543      0.2087       0.000    
  17    10.00       9.829       9.674       9.571       9.485       9.412       9.349       9.283       9.191       9.077    
        8.940       8.746       8.498       8.204       7.969       7.769       7.446       7.018       6.614       6.316    
        6.101       5.876       5.686       5.546       5.444       5.342       5.236       5.168       5.113       5.079    
        5.062       5.028       4.975       4.916       4.849       4.754       4.591       4.376       4.095       3.719    
        3.308       2.827       2.395       2.038       1.699       1.326      0.9466      0.5775      0.2442       0.000    
  18    10.00       9.819       9.673       9.584       9.507       9.437       9.374       9.295       9.204       9.081    
        8.918       8.689       8.413       8.163       7.933       7.639       7.265       6.873       6.517       6.223    
        5.959       5.670       5.505       5.389       5.300       5.184       5.116       5.058       5.022       5.025    
        5.017       4.987       4.935       4.870       4.800       4.699       4.543       4.368       4.125       3.778    
        3.246       2.733       2.380       2.040       1.752       1.360      0.9414      0.5663      0.2440       0.000    
  19    10.00       9.827       9.705       9.614       9.531       9.461       9.387       9.314       9.230       9.088    
        8.895       8.651       8.377       8.100       7.795       7.477       7.130       6.752       6.393       6.081    
        5.774       5.521       5.390       5.299       5.174       5.071       5.013       4.961       4.951       4.952    
        4.955       4.936       4.876       4.815       4.758       4.680       4.533       4.342       4.096       3.690    
        3.154       2.718       2.366       2.032       1.709       1.304      0.9043      0.5629      0.2653       0.000    
  20    10.00       9.837       9.733       9.653       9.573       9.489       9.402       9.323       9.239       9.095    
        8.885       8.631       8.313       7.952       7.602       7.342       6.992       6.586       6.270       5.961    
        5.686       5.477       5.317       5.180       5.020       4.948       4.910       4.883       4.886       4.886    
        4.890       4.863       4.813       4.777       4.729       4.649       4.481       4.288       4.008       3.552    
        3.090       2.742       2.336       1.954       1.602       1.204      0.9070      0.5590      0.2479       0.000    
  21    10.00       9.861       9.767       9.686       9.599       9.519       9.423       9.338       9.246       9.084    
        8.858       8.548       8.151       7.728       7.402       7.164       6.835       6.537       6.241       5.906    
        5.645       5.413       5.213       4.954       4.821       4.784       4.728       4.764       4.798       4.795    
        4.791       4.763       4.751       4.732       4.692       4.582       4.417       4.249       3.842       3.367    
        3.023       2.648       2.233       1.877       1.504       1.156      0.8212      0.4925      0.2474       0.000    
  22    10.00       9.891       9.793       9.705       9.620       9.545       9.436       9.325       9.218       9.051    
        8.775       8.384       7.936       7.539       7.258       7.010       6.758       6.543       6.217       5.888    
        5.613       5.283       4.924       4.653       4.552       4.455       4.468       4.571       4.612       4.633    
        4.651       4.649       4.669       4.680       4.642       4.528       4.361       4.052       3.588       3.285    
        2.915       2.510       2.137       1.796       1.477       1.064      0.7127      0.4722      0.2654       0.000    
  23    10.00       9.892       9.798       9.718       9.629       9.529       9.406       9.306       9.212       9.001    
        8.662       8.242       7.833       7.486       7.198       6.988       6.751       6.468       6.156       5.894    
        5.512       5.027       4.642       4.366       3.960       3.961       4.178       4.300       4.389       4.475    
        4.515       4.546       4.581       4.607       4.573       4.458       4.214       3.857       3.478       3.106    
        2.753       2.418       2.059       1.789       1.387      0.9670      0.6932      0.4540      0.2357       0.000    
  24    10.00       9.916       9.809       9.704       9.602       9.487       9.376       9.290       9.185       8.937    
        8.550       8.154       7.814       7.512       7.237       6.961       6.671       6.414       6.166       5.858    
        5.402       4.921       4.464       3.628       2.736       3.257       3.757       4.050       4.213       4.348    
        4.421       4.468       4.513       4.521       4.483       4.336       4.063       3.769       3.352       2.956    
        2.679       2.358       2.019       1.673       1.241      0.8972      0.6667      0.4252      0.1876       0.000    
  25    10.00       9.908       9.784       9.657       9.536       9.433       9.348       9.261       9.132       8.874    
        8.468       8.099       7.838       7.556       7.238       6.952       6.680       6.455       6.225       5.829    
        5.306       4.833       4.101       2.743     -9.3572E-02   2.644       3.434       3.897       4.139       4.280    
        4.364       4.420       4.458       4.453       4.401       4.237       3.947       3.603       3.264       2.928    
        2.613       2.264       1.878       1.514       1.104      0.8237      0.6638      0.4133      0.1532       0.000    
  26    10.00       9.885       9.726       9.582       9.486       9.401       9.318       9.211       9.058       8.740    
        8.362       8.103       7.853       7.572       7.274       6.999       6.743       6.520       6.231       5.810    
        5.351       4.828       4.188       3.454       2.780       3.137       3.608       3.933       4.131       4.260    
        4.340       4.397       4.417       4.399       4.323       4.126       3.803       3.526       3.254       2.893    
        2.566       2.172       1.729       1.338       1.004      0.8059      0.6277      0.3682      0.1567       0.000    
  27    10.00       9.860       9.690       9.556       9.474       9.364       9.254       9.119       8.914       8.611    
        8.343       8.114       7.860       7.585       7.293       7.075       6.899       6.599       6.234       5.805    
        5.415       5.036       4.522       4.039       3.658       3.717       3.898       4.057       4.183       4.274    
        4.356       4.401       4.403       4.362       4.258       4.032       3.775       3.532       3.216       2.877    
        2.539       2.064       1.558       1.190      0.9576      0.7926      0.5967      0.3891      0.1876       0.000    
  28    10.00       9.841       9.717       9.567       9.427       9.292       9.170       9.010       8.805       8.569    
        8.349       8.144       7.892       7.585       7.326       7.150       6.954       6.623       6.201       5.821    
        5.545       5.263       4.859       4.484       4.242       4.162       4.157       4.205       4.285       4.359    
        4.409       4.418       4.402       4.339       4.201       3.997       3.791       3.505       3.177       2.836    
        2.423       1.976       1.474       1.110      0.9469      0.7892      0.6150      0.4063      0.1884       0.000    
  29    10.00       9.846       9.692       9.532       9.365       9.235       9.096       8.919       8.745       8.558    
        8.361       8.157       7.912       7.653       7.431       7.224       6.962       6.595       6.209       5.914    
        5.679       5.432       5.101       4.767       4.570       4.462       4.394       4.392       4.428       4.450    
        4.451       4.440       4.404       4.316       4.159       3.984       3.794       3.528       3.164       2.733    
        2.355       1.880       1.379       1.093      0.9498      0.7947      0.6103      0.3968      0.1973       0.000    
  30    10.00       9.824       9.668       9.477       9.307       9.187       9.038       8.882       8.748       8.579    
        8.377       8.157       7.933       7.727       7.529       7.296       6.962       6.620       6.312       6.032    
        5.831       5.586       5.285       4.996       4.758       4.662       4.597       4.571       4.546       4.521    
        4.492       4.463       4.406       4.291       4.148       4.009       3.819       3.476       3.027       2.587    
        2.204       1.768       1.387       1.123      0.9712      0.7963      0.5994      0.4159      0.2040       0.000    
  31    10.00       9.801       9.620       9.437       9.284       9.159       9.018       8.880       8.746       8.582    
        8.382       8.160       7.967       7.796       7.610       7.347       7.017       6.720       6.478       6.231    
        6.017       5.741       5.445       5.201       4.959       4.802       4.736       4.672       4.625       4.575    
        4.535       4.482       4.401       4.289       4.151       3.996       3.695       3.312       2.939       2.510    
        2.148       1.713       1.342       1.151      0.9890      0.8244      0.6195      0.4163      0.1973       0.000    
  32    10.00       9.785       9.591       9.434       9.305       9.180       9.033       8.876       8.714       8.559    
        8.361       8.169       7.997       7.808       7.635       7.411       7.156       6.934       6.685       6.430    
        6.214       5.957       5.659       5.397       5.145       4.922       4.834       4.752       4.685       4.614    
        4.558       4.505       4.398       4.259       4.129       3.914       3.541       3.180       2.852       2.461    
        2.040       1.636       1.363       1.216       1.039      0.8314      0.6147      0.3954      0.1973       0.000    
  33    10.00       9.779       9.612       9.486       9.357       9.213       9.035       8.860       8.687       8.509    
        8.345       8.183       8.013       7.833       7.641       7.468       7.281       7.092       6.889       6.640    
        6.389       6.148       5.897       5.592       5.282       5.029       4.899       4.816       4.732       4.643    
        4.577       4.500       4.383       4.249       4.060       3.762       3.381       3.076       2.761       2.305    
        1.923       1.659       1.443       1.268       1.066      0.8475      0.5821      0.3478      0.1567       0.000    
  34    10.00       9.798       9.662       9.544       9.400       9.223       9.036       8.832       8.640       8.491    
        8.344       8.197       8.043       7.858       7.688       7.521       7.360       7.209       7.015       6.761    
        6.524       6.306       6.058       5.742       5.401       5.118       4.951       4.852       4.758       4.658    
        4.571       4.486       4.370       4.202       3.971       3.603       3.232       2.959       2.584       2.184    
        1.949       1.775       1.567       1.342       1.076      0.7686      0.4703      0.2785      0.1155       0.000    
  35    10.00       9.831       9.709       9.589       9.435       9.236       9.022       8.795       8.613       8.485    
        8.387       8.239       8.068       7.871       7.691       7.572       7.454       7.300       7.098       6.857    
        6.631       6.416       6.187       5.831       5.444       5.174       4.991       4.879       4.769       4.655    
        4.568       4.468       4.331       4.110       3.748       3.365       3.119       2.837       2.455       2.215    
        2.051       1.854       1.645       1.425       1.089      0.6535      0.3612      0.2374      0.1205       0.000    
  36    10.00       9.851       9.745       9.630       9.467       9.230       8.969       8.755       8.624       8.526    
        8.393       8.224       8.067       7.893       7.735       7.617       7.505       7.368       7.209       6.986    
        6.752       6.524       6.242       5.858       5.477       5.203       5.029       4.896       4.760       4.646    
        4.546       4.419       4.199       3.867       3.537       3.275       3.045       2.749       2.447       2.288    
        2.122       1.945       1.734       1.451      0.9934      0.5503      0.3392      0.2171      0.1115       0.000    
  37    10.00       9.867       9.785       9.660       9.443       9.184       8.954       8.787       8.679       8.561    
        8.388       8.208       8.073       7.923       7.775       7.662       7.559       7.432       7.264       7.071    
        6.879       6.631       6.277       5.913       5.551       5.240       5.030       4.863       4.737       4.617    
        4.493       4.305       3.975       3.674       3.444       3.219       2.982       2.750       2.535       2.358    
        2.198       1.999       1.760       1.387      0.9104      0.5305      0.3177      0.2019      0.1013       0.000    
  38    10.00       9.887       9.787       9.652       9.426       9.159       8.964       8.841       8.729       8.590    
        8.406       8.217       8.085       7.947       7.800       7.687       7.598       7.487       7.322       7.155    
        6.978       6.692       6.290       5.895       5.535       5.230       5.000       4.814       4.691       4.578    
        4.410       4.099       3.808       3.621       3.394       3.172       3.002       2.807       2.610       2.440    
        2.252       1.981       1.677       1.273      0.7998      0.5084      0.3576      0.2228      9.9986E-02   0.000    
  39    10.00       9.885       9.773       9.631       9.413       9.171       8.996       8.886       8.748       8.595    
        8.446       8.256       8.104       7.973       7.832       7.712       7.611       7.502       7.370       7.218    
        7.012       6.705       6.287       5.844       5.473       5.189       4.927       4.736       4.641       4.531    
        4.270       3.950       3.771       3.558       3.347       3.190       3.049       2.872       2.681       2.522    
        2.250       1.866       1.508       1.072      0.7135      0.5507      0.4100      0.2669      0.1373       0.000    
  40    10.00       9.876       9.777       9.632       9.432       9.229       9.058       8.913       8.751       8.610    
        8.498       8.313       8.122       7.989       7.859       7.723       7.611       7.525       7.409       7.227    
        6.989       6.634       6.209       5.793       5.414       5.117       4.820       4.671       4.586       4.439    
        4.202       3.966       3.724       3.505       3.357       3.222       3.088       2.923       2.747       2.538    
        2.170       1.751       1.364       1.011      0.7654      0.5977      0.4576      0.3230      0.1586       0.000    
  41    10.00       9.893       9.814       9.673       9.467       9.256       9.093       8.963       8.804       8.636    
        8.503       8.334       8.157       8.032       7.881       7.718       7.622       7.529       7.378       7.178    
        6.931       6.584       6.158       5.752       5.375       4.977       4.703       4.623       4.530       4.421    
        4.235       3.951       3.708       3.535       3.389       3.268       3.122       2.963       2.781       2.456    
        2.025       1.618       1.281       1.021      0.8084      0.6528      0.5029      0.3553      0.1871       0.000    
  42    10.00       9.920       9.832       9.697       9.520       9.319       9.134       9.000       8.856       8.671    
        8.501       8.339       8.189       8.069       7.910       7.738       7.621       7.495       7.329       7.101    
        6.817       6.437       6.064       5.662       5.169       4.818       4.677       4.613       4.534       4.417    
        4.199       3.951       3.725       3.551       3.433       3.305       3.175       3.004       2.714       2.283    
        1.906       1.602       1.310       1.016      0.8188      0.6865      0.5428      0.3700      0.2053       0.000    
  43    10.00       9.937       9.843       9.704       9.529       9.362       9.198       9.048       8.870       8.679    
        8.522       8.359       8.211       8.099       7.950       7.756       7.601       7.456       7.230       6.939    
        6.661       6.296       5.951       5.490       5.027       4.797       4.687       4.613       4.538       4.415    
        4.208       3.982       3.766       3.595       3.483       3.356       3.186       2.941       2.518       2.136    
        1.901       1.632       1.324       1.019      0.8108      0.6884      0.5776      0.4001      0.1875       0.000    
  44    10.00       9.930       9.850       9.705       9.546       9.425       9.260       9.056       8.854       8.695    
        8.539       8.376       8.245       8.128       7.954       7.747       7.568       7.395       7.128       6.836    
        6.505       6.140       5.774       5.313       4.968       4.798       4.704       4.640       4.558       4.403    
        4.192       4.011       3.821       3.663       3.548       3.374       3.147       2.797       2.367       2.115    
        1.900       1.619       1.312       1.034      0.8208      0.6905      0.5781      0.3920      0.1727       0.000    
  45    10.00       9.915       9.819       9.702       9.586       9.432       9.258       9.064       8.863       8.703    
        8.541       8.394       8.279       8.145       7.954       7.732       7.532       7.335       7.046       6.703    
        6.322       5.936       5.543       5.205       4.967       4.824       4.733       4.665       4.562       4.435    
        4.253       4.047       3.877       3.715       3.550       3.366       3.118       2.745       2.372       2.078    
        1.832       1.568       1.281       1.032      0.8467      0.7385      0.5707      0.3397      0.1549       0.000    
  46    10.00       9.898       9.798       9.705       9.573       9.396       9.228       9.069       8.871       8.701    
        8.557       8.420       8.304       8.143       7.940       7.742       7.529       7.272       6.960       6.588    
        6.140       5.757       5.444       5.188       5.007       4.881       4.769       4.678       4.596       4.455    
        4.261       4.083       3.916       3.730       3.566       3.390       3.111       2.681       2.290       2.027    
        1.797       1.543       1.274       1.056      0.9117      0.7724      0.5176      0.2544      0.1106       0.000    
  47    10.00       9.891       9.790       9.661       9.508       9.363       9.218       9.046       8.866       8.714    
        8.582       8.460       8.296       8.122       7.939       7.747       7.513       7.214       6.922       6.470    
        5.984       5.686       5.417       5.216       5.048       4.925       4.813       4.702       4.607       4.461    
        4.259       4.083       3.914       3.738       3.596       3.384       2.996       2.611       2.283       2.004    
        1.802       1.563       1.323       1.112      0.9338      0.7088      0.4260      0.2226      9.2716E-02   0.000    
  48    10.00       9.879       9.757       9.620       9.481       9.353       9.206       9.048       8.882       8.732    
        8.598       8.454       8.276       8.096       7.917       7.726       7.502       7.221       6.857       6.409    
        5.990       5.684       5.422       5.238       5.102       4.950       4.836       4.744       4.626       4.428    
        4.229       4.058       3.903       3.773       3.586       3.306       2.937       2.590       2.280       2.034    
        1.816       1.588       1.372       1.133      0.8662      0.5760      0.3641      0.2160      9.7567E-02   0.000    
  49    10.00       9.868       9.735       9.601       9.488       9.354       9.199       9.044       8.909       8.754    
        8.594       8.412       8.237       8.086       7.882       7.696       7.510       7.195       6.836       6.479    
        6.037       5.696       5.436       5.275       5.115       4.951       4.863       4.775       4.586       4.348    
        4.177       4.040       3.928       3.759       3.542       3.292       2.922       2.576       2.333       2.071    
        1.815       1.606       1.375       1.094      0.7670      0.5136      0.3642      0.2351      0.1206       0.000    
  50    10.00       9.873       9.740       9.604       9.480       9.349       9.210       9.058       8.916       8.777    
        8.581       8.391       8.230       8.028       7.821       7.679       7.502       7.258       6.902       6.549    
        6.099       5.670       5.443       5.280       5.113       4.980       4.874       4.756       4.533       4.306    
        4.165       4.052       3.921       3.745       3.545       3.306       2.932       2.577       2.341       2.105    
        1.862       1.598       1.338       1.038      0.7151      0.5256      0.3919      0.2656      0.1602       0.000    

 HEAD WILL BE SAVED ON UNIT   51 AT END OF TIME STEP  52, STRESS PERIOD    2

 DRAWDOWN WILL BE SAVED ON UNIT   52 AT END OF TIME STEP  52, STRESS PERIOD    2
1
  VOLUMETRIC BUDGET FOR ENTIRE MODEL AT END OF TIME STEP 52 IN STRESS PERIOD   2
  ------------------------------------------------------------------------------

     CUMULATIVE VOLUMES      L**3       RATES FOR THIS TIME STEP      L**3/T
     ------------------                 ------------------------

           IN:                                      IN:
           ---                                      ---
             STORAGE =       25735.1289               STORAGE =         479.8156
       CONSTANT HEAD =       19986.1914         CONSTANT HEAD =         390.6774
               WELLS =           0.0000                 WELLS =           0.0000

            TOTAL IN =       45721.3203              TOTAL IN =         870.4930

          OUT:                                     OUT:
          ----                                     ----
             STORAGE =       1.1143E-02               STORAGE =           0.0000
       CONSTANT HEAD =       19721.3086         CONSTANT HEAD =         370.4932
               WELLS =       26000.0000                 WELLS =         500.0000

           TOTAL OUT =       45721.3203             TOTAL OUT =         870.4932

            IN - OUT =           0.0000              IN - OUT =      -2.4414E-04

 PERCENT DISCREPANCY =           0.00     PERCENT DISCREPANCY =           0.00






          TIME SUMMARY AT END OF TIME STEP  52 IN STRESS PERIOD    2
                    SECONDS     MINUTES      HOURS       DAYS        YEARS
                    -----------------------------------------------------------
   TIME STEP LENGTH  86400.      1440.0      24.000      1.0000     2.73785E-03
 STRESS PERIOD TIME 4.49280E+06  74880.      1248.0      52.000     0.14237    
         TOTAL TIME 4.57920E+06  76320.      1272.0      53.000     0.14511    
1
 
 SOLVING FOR HEAD 

 OUTPUT CONTROL FOR STRESS PERIOD    2   TIME STEP  53
    SAVE HEAD FOR ALL LAYERS
    SAVE DRAWDOWN FOR ALL LAYERS
    SAVE BUDGET
    PRINT HEAD FOR ALL LAYERS
    PRINT BUDGET
 UBDSV1 SAVING "         STORAGE" ON UNIT  53 AT TIME STEP 53, STRESS PERIOD   2
 UBDSV2 SAVING "   CONSTANT HEAD" ON UNIT  53 AT TIME STEP 53, STRESS PERIOD   2
 UBDSV1 SAVING "FLOW RIGHT FACE " ON UNIT  53 AT TIME STEP 53, STRESS PERIOD   2
 UBDSV1 SAVING "FLOW FRONT FACE " ON UNIT  53 AT TIME STEP 53, STRESS PERIOD   2
1
              HEAD IN LAYER   1 AT END OF TIME STEP  53 IN STRESS PERIOD    2
  ---------------------------------------------------------------------------

            1           2           3           4           5           6           7           8           9          10
           11          12          13          14          15          16          17          18          19          20
           21          22          23          24          25          26          27          28          29          30
           31          32          33          34          35          36          37          38          39          40
           41          42          43          44          45          46          47          48          49          50
 ........................................................................................................................
   1    10.00       9.952       9.905       9.848       9.804       9.767       9.717       9.648       9.573       9.503    
        9.350       9.159       9.017       8.860       8.692       8.522       8.364       8.183       7.941       7.700    
        7.535       7.347       7.098       6.847       6.622       6.426       6.147       5.892       5.712       5.523    
        5.361       5.256       5.142       5.013       4.889       4.735       4.569       4.345       4.088       3.807    
        3.444       3.075       2.589       2.060       1.661       1.374       1.160      0.9146      0.5369       0.000    
   2    10.00       9.947       9.896       9.849       9.811       9.775       9.719       9.649       9.580       9.486    
        9.337       9.165       9.006       8.863       8.707       8.532       8.345       8.158       7.933       7.689    
        7.510       7.355       7.090       6.818       6.618       6.397       6.127       5.884       5.677       5.499    
        5.362       5.265       5.169       5.031       4.886       4.733       4.543       4.334       4.085       3.764    
        3.424       3.110       2.601       2.075       1.722       1.466       1.219      0.9447      0.5703       0.000    
   3    10.00       9.939       9.896       9.863       9.827       9.790       9.730       9.646       9.562       9.460    
        9.325       9.173       9.019       8.874       8.690       8.470       8.287       8.126       7.918       7.705    
        7.521       7.300       7.039       6.798       6.581       6.333       6.074       5.834       5.621       5.489    
        5.377       5.284       5.188       5.036       4.883       4.721       4.532       4.298       4.020       3.775    
        3.474       3.046       2.549       2.171       1.871       1.573       1.269      0.9574      0.5405       0.000    
   4    10.00       9.939       9.901       9.871       9.847       9.807       9.738       9.641       9.542       9.441    
        9.311       9.175       9.021       8.839       8.612       8.408       8.277       8.095       7.894       7.728    
        7.475       7.196       6.966       6.752       6.542       6.245       5.958       5.766       5.622       5.508    
        5.407       5.310       5.205       5.029       4.840       4.693       4.494       4.252       4.015       3.799    
        3.458       2.985       2.611       2.293       1.970       1.632       1.266      0.9013      0.4619       0.000    
   5    10.00       9.944       9.909       9.879       9.857       9.816       9.744       9.633       9.522       9.421    
        9.311       9.170       8.973       8.760       8.568       8.407       8.243       8.074       7.886       7.650    
        7.357       7.126       6.935       6.719       6.448       6.140       5.905       5.768       5.649       5.534    
        5.418       5.300       5.180       5.010       4.818       4.640       4.461       4.270       4.055       3.771    
        3.384       3.024       2.703       2.383       2.030       1.637       1.177      0.7589      0.3930       0.000    
   6    10.00       9.953       9.919       9.890       9.860       9.814       9.737       9.618       9.521       9.413    
        9.289       9.115       8.899       8.722       8.545       8.361       8.194       8.043       7.832       7.565    
        7.305       7.084       6.888       6.621       6.327       6.094       5.903       5.776       5.644       5.524    
        5.422       5.292       5.142       4.967       4.780       4.627       4.472       4.299       4.072       3.766    
        3.428       3.080       2.752       2.428       2.046       1.571       1.076      0.7136      0.3674       0.000    
   7    10.00       9.959       9.930       9.899       9.866       9.812       9.708       9.594       9.493       9.359    
        9.232       9.047       8.851       8.669       8.486       8.300       8.137       7.998       7.756       7.471    
        7.236       7.011       6.793       6.533       6.284       6.071       5.904       5.751       5.610       5.517    
        5.412       5.268       5.109       4.933       4.772       4.637       4.493       4.316       4.083       3.805    
        3.469       3.111       2.771       2.413       2.036       1.537       1.029      0.6796      0.3217       0.000    
   8    10.00       9.966       9.940       9.907       9.868       9.781       9.655       9.546       9.420       9.292    
        9.152       8.962       8.796       8.610       8.406       8.223       8.082       7.916       7.687       7.411    
        7.138       6.931       6.750       6.483       6.224       6.034       5.845       5.680       5.583       5.493    
        5.368       5.225       5.091       4.936       4.768       4.628       4.518       4.384       4.156       3.837    
        3.469       3.151       2.833       2.417       1.996       1.438      0.9530      0.6657      0.3081       0.000    
   9    10.00       9.973       9.944       9.906       9.842       9.726       9.592       9.465       9.355       9.223    
        9.057       8.889       8.723       8.544       8.334       8.163       8.030       7.834       7.608       7.326    
        7.089       6.884       6.627       6.354       6.135       5.965       5.776       5.637       5.543       5.440    
        5.326       5.198       5.071       4.936       4.793       4.659       4.548       4.428       4.194       3.847    
        3.509       3.226       2.892       2.490       1.868       1.238      0.9079      0.5629      0.2148       0.000    
  10    10.00       9.973       9.942       9.890       9.791       9.654       9.505       9.407       9.302       9.146    
        9.001       8.834       8.669       8.475       8.281       8.126       7.948       7.745       7.506       7.278    
        7.045       6.731       6.466       6.251       6.064       5.912       5.737       5.595       5.502       5.417    
        5.297       5.158       5.045       4.920       4.794       4.703       4.593       4.453       4.185       3.842    
        3.577       3.329       2.945       2.340       1.619       1.163      0.8240      0.5032      0.2511       0.000    
  11    10.00       9.973       9.932       9.851       9.740       9.587       9.455       9.372       9.247       9.114    
        8.975       8.800       8.602       8.395       8.231       8.064       7.898       7.679       7.447       7.222    
        6.890       6.587       6.376       6.182       6.001       5.832       5.666       5.555       5.478       5.393    
        5.256       5.127       5.033       4.922       4.819       4.718       4.594       4.442       4.190       3.915    
        3.637       3.313       2.895       2.228       1.553       1.093      0.7723      0.5859      0.3237       0.000    
  12    10.00       9.971       9.913       9.809       9.664       9.512       9.407       9.324       9.215       9.095    
        8.943       8.756       8.557       8.374       8.206       8.023       7.831       7.607       7.371       7.065    
        6.737       6.507       6.299       6.101       5.902       5.733       5.617       5.534       5.435       5.326    
        5.204       5.108       5.026       4.938       4.848       4.746       4.613       4.429       4.196       3.949    
        3.650       3.297       2.725       1.974       1.400       1.077      0.8574      0.6218      0.3545       0.000    
  13    10.00       9.962       9.872       9.729       9.578       9.447       9.362       9.290       9.197       9.081    
        8.920       8.726       8.543       8.396       8.202       7.976       7.752       7.509       7.246       6.947    
        6.660       6.411       6.185       5.980       5.789       5.666       5.592       5.475       5.347       5.249    
        5.172       5.097       5.023       4.950       4.864       4.774       4.654       4.444       4.205       3.913    
        3.569       3.123       2.460       1.851       1.434       1.158      0.9015      0.6234      0.3080       0.000    
  14    10.00       9.930       9.802       9.645       9.504       9.401       9.344       9.277       9.188       9.061    
        8.884       8.718       8.568       8.414       8.195       7.929       7.687       7.412       7.119       6.808    
        6.529       6.280       6.057       5.855       5.706       5.621       5.530       5.389       5.280       5.207    
        5.151       5.081       5.018       4.950       4.872       4.801       4.660       4.445       4.192       3.828    
        3.423       2.897       2.386       1.942       1.526       1.202      0.9175      0.6240      0.2780       0.000    
  15    10.00       9.870       9.727       9.587       9.474       9.395       9.332       9.269       9.181       9.062    
        8.906       8.744       8.596       8.380       8.124       7.868       7.599       7.314       6.965       6.633    
        6.374       6.132       5.922       5.768       5.655       5.566       5.455       5.323       5.234       5.181    
        5.118       5.061       5.013       4.948       4.876       4.799       4.649       4.446       4.127       3.734    
        3.315       2.842       2.428       1.969       1.619       1.274      0.9290      0.6181      0.2536       0.000    
  16    10.00       9.849       9.694       9.565       9.468       9.396       9.331       9.273       9.188       9.065    
        8.918       8.763       8.581       8.307       8.027       7.814       7.550       7.167       6.769       6.460    
        6.192       5.991       5.820       5.688       5.564       5.482       5.361       5.254       5.185       5.126    
        5.080       5.043       4.993       4.934       4.869       4.780       4.643       4.397       4.050       3.692    
        3.334       2.879       2.413       2.009       1.678       1.316      0.9264      0.5540      0.2086       0.000    
  17    10.00       9.829       9.673       9.569       9.483       9.410       9.347       9.281       9.188       9.074    
        8.937       8.742       8.493       8.197       7.962       7.761       7.437       7.007       6.603       6.304    
        6.089       5.863       5.673       5.533       5.431       5.329       5.223       5.156       5.100       5.067    
        5.050       5.016       4.964       4.906       4.839       4.744       4.582       4.368       4.088       3.713    
        3.304       2.824       2.393       2.036       1.698       1.325      0.9461      0.5773      0.2441       0.000    
  18    10.00       9.819       9.672       9.583       9.505       9.435       9.372       9.293       9.202       9.078    
        8.914       8.684       8.407       8.156       7.925       7.630       7.255       6.862       6.505       6.211    
        5.946       5.657       5.492       5.376       5.287       5.171       5.102       5.045       5.009       5.012    
        5.004       4.975       4.923       4.858       4.790       4.688       4.534       4.360       4.117       3.772    
        3.241       2.730       2.378       2.038       1.750       1.359      0.9409      0.5661      0.2439       0.000    
  19    10.00       9.827       9.704       9.613       9.530       9.459       9.385       9.312       9.227       9.085    
        8.891       8.646       8.371       8.093       7.787       7.467       7.119       6.740       6.380       6.068    
        5.760       5.508       5.376       5.285       5.160       5.057       4.999       4.947       4.937       4.938    
        4.942       4.923       4.864       4.804       4.747       4.669       4.523       4.333       4.088       3.684    
        3.149       2.715       2.364       2.030       1.707       1.304      0.9039      0.5627      0.2652       0.000    
  20    10.00       9.836       9.732       9.652       9.571       9.488       9.400       9.321       9.236       9.092    
        8.881       8.626       8.307       7.944       7.593       7.332       6.981       6.574       6.257       5.947    
        5.672       5.463       5.303       5.166       5.006       4.933       4.895       4.869       4.873       4.873    
        4.876       4.850       4.800       4.765       4.717       4.638       4.471       4.279       4.000       3.546    
        3.086       2.739       2.334       1.953       1.601       1.203      0.9066      0.5588      0.2478       0.000    
  21    10.00       9.860       9.767       9.685       9.598       9.518       9.421       9.335       9.243       9.081    
        8.854       8.542       8.143       7.719       7.391       7.153       6.823       6.525       6.227       5.892    
        5.630       5.399       5.199       4.939       4.806       4.769       4.713       4.750       4.784       4.781    
        4.777       4.749       4.738       4.719       4.680       4.571       4.407       4.240       3.834       3.362    
        3.019       2.645       2.231       1.876       1.503       1.155      0.8209      0.4923      0.2473       0.000    
  22    10.00       9.890       9.792       9.704       9.619       9.543       9.434       9.323       9.216       9.048    
        8.770       8.378       7.928       7.529       7.247       6.998       6.746       6.530       6.203       5.874    
        5.599       5.268       4.909       4.637       4.537       4.439       4.453       4.556       4.597       4.618    
        4.636       4.634       4.655       4.666       4.629       4.516       4.351       4.043       3.582       3.280    
        2.911       2.507       2.136       1.794       1.476       1.063      0.7124      0.4720      0.2653       0.000    
  23    10.00       9.892       9.797       9.717       9.628       9.528       9.404       9.303       9.209       8.998    
        8.657       8.235       7.824       7.476       7.187       6.976       6.739       6.455       6.142       5.880    
        5.498       5.012       4.627       4.350       3.945       3.945       4.163       4.285       4.374       4.460    
        4.499       4.531       4.566       4.593       4.559       4.446       4.204       3.849       3.472       3.101    
        2.749       2.415       2.058       1.788       1.386      0.9666      0.6929      0.4538      0.2357       0.000    
  24    10.00       9.915       9.808       9.703       9.600       9.485       9.374       9.287       9.182       8.933    
        8.545       8.146       7.806       7.502       7.226       6.949       6.658       6.401       6.152       5.844    
        5.387       4.906       4.448       3.612       2.720       3.241       3.741       4.034       4.197       4.332    
        4.406       4.452       4.497       4.506       4.469       4.323       4.053       3.761       3.346       2.952    
        2.676       2.355       2.017       1.672       1.240      0.8968      0.6664      0.4250      0.1876       0.000    
  25    10.00       9.908       9.784       9.656       9.535       9.431       9.345       9.259       9.128       8.870    
        8.462       8.091       7.829       7.546       7.227       6.940       6.667       6.442       6.212       5.815    
        5.291       4.817       4.085       2.727     -0.1112       2.628       3.418       3.880       4.123       4.264    
        4.348       4.404       4.442       4.438       4.387       4.224       3.937       3.595       3.258       2.924    
        2.609       2.262       1.877       1.513       1.103      0.8233      0.6635      0.4131      0.1531       0.000    
  26    10.00       9.884       9.725       9.581       9.484       9.399       9.315       9.208       9.055       8.735    
        8.355       8.095       7.844       7.562       7.263       6.987       6.731       6.508       6.218       5.796    
        5.336       4.813       4.172       3.438       2.763       3.121       3.591       3.916       4.115       4.244    
        4.324       4.381       4.402       4.384       4.309       4.114       3.794       3.518       3.248       2.888    
        2.562       2.169       1.728       1.337       1.003      0.8055      0.6273      0.3680      0.1566       0.000    
  27    10.00       9.859       9.689       9.555       9.473       9.362       9.251       9.116       8.910       8.606    
        8.337       8.106       7.851       7.576       7.282       7.064       6.887       6.586       6.221       5.791    
        5.400       5.021       4.506       4.023       3.642       3.701       3.881       4.041       4.167       4.258    
        4.340       4.385       4.387       4.348       4.244       4.020       3.766       3.524       3.210       2.873    
        2.535       2.061       1.556       1.190      0.9570      0.7921      0.5964      0.3889      0.1875       0.000    
  28    10.00       9.840       9.716       9.565       9.425       9.290       9.167       9.007       8.801       8.564    
        8.343       8.136       7.883       7.576       7.316       7.139       6.943       6.611       6.187       5.808    
        5.531       5.248       4.844       4.468       4.226       4.146       4.140       4.189       4.269       4.343    
        4.393       4.402       4.387       4.324       4.188       3.985       3.782       3.497       3.171       2.831    
        2.420       1.974       1.472       1.109      0.9463      0.7887      0.6147      0.4061      0.1883       0.000    
  29    10.00       9.846       9.691       9.531       9.363       9.232       9.093       8.915       8.741       8.553    
        8.355       8.150       7.904       7.644       7.421       7.213       6.951       6.583       6.196       5.901    
        5.665       5.417       5.086       4.752       4.554       4.446       4.378       4.376       4.413       4.435    
        4.435       4.425       4.389       4.302       4.147       3.973       3.784       3.519       3.158       2.728    
        2.352       1.878       1.378       1.093      0.9491      0.7942      0.6099      0.3966      0.1972       0.000    
  30    10.00       9.823       9.667       9.475       9.304       9.184       9.035       8.878       8.743       8.574    
        8.372       8.150       7.926       7.718       7.520       7.286       6.951       6.608       6.299       6.019    
        5.817       5.572       5.271       4.981       4.743       4.646       4.582       4.555       4.530       4.506    
        4.478       4.448       4.391       4.277       4.135       3.998       3.809       3.468       3.022       2.583    
        2.201       1.766       1.386       1.122      0.9706      0.7958      0.5990      0.4156      0.2039       0.000    
  31    10.00       9.800       9.619       9.435       9.281       9.156       9.015       8.876       8.742       8.577    
        8.376       8.153       7.959       7.788       7.601       7.337       7.007       6.709       6.466       6.219    
        6.003       5.728       5.431       5.187       4.944       4.787       4.721       4.657       4.610       4.560    
        4.521       4.468       4.388       4.276       4.139       3.985       3.686       3.305       2.933       2.506    
        2.145       1.712       1.341       1.150      0.9883      0.8239      0.6191      0.4161      0.1972       0.000    
  32    10.00       9.785       9.590       9.432       9.303       9.178       9.030       8.872       8.709       8.554    
        8.356       8.163       7.990       7.800       7.627       7.402       7.146       6.924       6.674       6.418    
        6.202       5.944       5.645       5.383       5.131       4.907       4.820       4.738       4.671       4.600    
        4.544       4.492       4.385       4.247       4.118       3.903       3.533       3.174       2.848       2.458    
        2.038       1.634       1.362       1.215       1.038      0.8308      0.6143      0.3952      0.1971       0.000    
  33    10.00       9.778       9.611       9.485       9.355       9.210       9.032       8.857       8.682       8.504    
        8.339       8.177       8.006       7.826       7.633       7.459       7.272       7.083       6.878       6.628    
        6.377       6.135       5.884       5.579       5.268       5.015       4.885       4.803       4.718       4.629    
        4.564       4.487       4.371       4.238       4.050       3.753       3.374       3.071       2.756       2.303    
        1.921       1.658       1.442       1.267       1.065      0.8469      0.5818      0.3476      0.1566       0.000    
  34    10.00       9.798       9.661       9.542       9.398       9.221       9.033       8.828       8.635       8.486    
        8.339       8.191       8.037       7.851       7.681       7.513       7.351       7.200       7.005       6.751    
        6.513       6.294       6.046       5.729       5.387       5.104       4.937       4.839       4.745       4.645    
        4.559       4.474       4.359       4.192       3.961       3.595       3.226       2.955       2.581       2.182    
        1.947       1.774       1.566       1.341       1.076      0.7680      0.4700      0.2783      0.1154       0.000    
  35    10.00       9.831       9.708       9.588       9.434       9.234       9.019       8.791       8.608       8.480    
        8.382       8.233       8.062       7.865       7.684       7.564       7.446       7.291       7.089       6.847    
        6.621       6.404       6.175       5.818       5.432       5.161       4.978       4.866       4.757       4.643    
        4.556       4.457       4.320       4.100       3.741       3.360       3.114       2.833       2.452       2.213    
        2.049       1.852       1.643       1.424       1.088      0.6531      0.3610      0.2373      0.1204       0.000    
  36    10.00       9.851       9.744       9.629       9.465       9.228       8.966       8.751       8.620       8.522    
        8.388       8.218       8.062       7.887       7.728       7.610       7.497       7.360       7.200       6.977    
        6.742       6.514       6.231       5.846       5.465       5.191       5.017       4.885       4.748       4.634    
        4.535       4.409       4.189       3.859       3.531       3.271       3.041       2.746       2.444       2.286    
        2.120       1.944       1.733       1.450      0.9927      0.5499      0.3390      0.2170      0.1115       0.000    
  37    10.00       9.867       9.784       9.659       9.442       9.182       8.951       8.784       8.675       8.557    
        8.383       8.203       8.067       7.916       7.769       7.655       7.552       7.424       7.256       7.062    
        6.870       6.621       6.267       5.903       5.540       5.229       5.019       4.853       4.727       4.607    
        4.483       4.295       3.967       3.668       3.439       3.215       2.979       2.747       2.532       2.356    
        2.196       1.998       1.758       1.386      0.9098      0.5302      0.3176      0.2018      0.1012       0.000    
  38    10.00       9.886       9.787       9.651       9.425       9.157       8.962       8.838       8.725       8.586    
        8.402       8.212       8.079       7.941       7.794       7.681       7.591       7.480       7.315       7.147    
        6.970       6.683       6.281       5.886       5.526       5.221       4.991       4.806       4.682       4.570    
        4.402       4.092       3.803       3.616       3.390       3.168       2.999       2.804       2.608       2.438    
        2.250       1.980       1.676       1.272      0.7994      0.5081      0.3574      0.2227      9.9937E-02   0.000    
  39    10.00       9.885       9.772       9.630       9.411       9.169       8.993       8.883       8.745       8.591    
        8.442       8.251       8.099       7.968       7.826       7.706       7.604       7.496       7.363       7.211    
        7.004       6.697       6.279       5.836       5.465       5.181       4.920       4.729       4.634       4.525    
        4.263       3.945       3.766       3.554       3.344       3.187       3.046       2.869       2.679       2.520    
        2.248       1.865       1.507       1.071      0.7131      0.5504      0.4098      0.2668      0.1373       0.000    
  40    10.00       9.876       9.777       9.631       9.431       9.228       9.056       8.911       8.748       8.607    
        8.495       8.309       8.117       7.984       7.853       7.717       7.605       7.519       7.403       7.220    
        6.982       6.628       6.202       5.786       5.408       5.111       4.815       4.665       4.581       4.434    
        4.198       3.962       3.720       3.501       3.354       3.219       3.085       2.920       2.744       2.536    
        2.168       1.750       1.363       1.010      0.7651      0.5975      0.4574      0.3228      0.1585       0.000    
  41    10.00       9.893       9.814       9.672       9.466       9.254       9.091       8.961       8.801       8.633    
        8.500       8.330       8.153       8.027       7.876       7.713       7.616       7.523       7.372       7.172    
        6.926       6.579       6.153       5.747       5.369       4.972       4.699       4.619       4.526       4.417    
        4.231       3.947       3.705       3.532       3.386       3.265       3.119       2.961       2.779       2.455    
        2.023       1.617       1.280       1.020      0.8080      0.6525      0.5027      0.3552      0.1870       0.000    
  42    10.00       9.920       9.832       9.697       9.519       9.317       9.132       8.998       8.854       8.669    
        8.498       8.336       8.186       8.065       7.906       7.733       7.616       7.490       7.325       7.097    
        6.813       6.433       6.061       5.658       5.166       4.814       4.673       4.610       4.531       4.413    
        4.196       3.948       3.722       3.548       3.430       3.302       3.172       3.001       2.712       2.281    
        1.905       1.601       1.309       1.016      0.8185      0.6863      0.5426      0.3698      0.2052       0.000    
  43    10.00       9.937       9.843       9.703       9.528       9.360       9.196       9.046       8.868       8.676    
        8.520       8.356       8.208       8.096       7.947       7.753       7.597       7.452       7.226       6.935    
        6.658       6.292       5.948       5.487       5.024       4.794       4.683       4.610       4.535       4.412    
        4.205       3.979       3.763       3.593       3.480       3.353       3.183       2.939       2.516       2.135    
        1.900       1.631       1.324       1.019      0.8105      0.6882      0.5774      0.4000      0.1874       0.000    
  44    10.00       9.930       9.849       9.704       9.545       9.424       9.259       9.055       8.853       8.694    
        8.537       8.373       8.243       8.125       7.951       7.744       7.565       7.392       7.125       6.833    
        6.502       6.137       5.772       5.311       4.965       4.795       4.701       4.637       4.555       4.400    
        4.190       4.009       3.819       3.661       3.545       3.371       3.145       2.796       2.366       2.114    
        1.899       1.618       1.311       1.033      0.8206      0.6903      0.5779      0.3919      0.1727       0.000    
  45    10.00       9.915       9.819       9.702       9.586       9.431       9.257       9.063       8.862       8.702    
        8.540       8.392       8.277       8.143       7.952       7.730       7.529       7.333       7.044       6.701    
        6.320       5.934       5.541       5.203       4.965       4.822       4.730       4.663       4.559       4.433    
        4.251       4.045       3.875       3.713       3.548       3.364       3.116       2.744       2.371       2.077    
        1.832       1.568       1.281       1.032      0.8465      0.7383      0.5705      0.3396      0.1548       0.000    
  46    10.00       9.898       9.797       9.704       9.573       9.396       9.227       9.068       8.871       8.700    
        8.556       8.418       8.303       8.142       7.939       7.740       7.527       7.270       6.958       6.586    
        6.138       5.755       5.442       5.186       5.005       4.879       4.766       4.675       4.594       4.452    
        4.259       4.081       3.914       3.728       3.564       3.389       3.109       2.680       2.289       2.027    
        1.796       1.543       1.274       1.055      0.9114      0.7722      0.5175      0.2544      0.1106       0.000    
  47    10.00       9.891       9.790       9.661       9.508       9.363       9.218       9.045       8.865       8.713    
        8.582       8.458       8.295       8.121       7.938       7.745       7.512       7.212       6.920       6.469    
        5.983       5.685       5.415       5.215       5.047       4.923       4.810       4.700       4.605       4.459    
        4.257       4.081       3.912       3.736       3.595       3.383       2.995       2.610       2.283       2.004    
        1.802       1.562       1.323       1.112      0.9336      0.7087      0.4259      0.2226      9.2699E-02   0.000    
  48    10.00       9.879       9.757       9.620       9.481       9.352       9.205       9.047       8.881       8.731    
        8.597       8.453       8.275       8.095       7.916       7.725       7.501       7.220       6.856       6.408    
        5.989       5.683       5.421       5.236       5.100       4.948       4.834       4.742       4.624       4.426    
        4.228       4.056       3.901       3.771       3.585       3.304       2.936       2.589       2.279       2.033    
        1.815       1.588       1.372       1.133      0.8660      0.5759      0.3641      0.2159      9.7553E-02   0.000    
  49    10.00       9.868       9.735       9.601       9.487       9.354       9.198       9.043       8.909       8.753    
        8.593       8.411       8.236       8.085       7.881       7.695       7.509       7.194       6.835       6.478    
        6.036       5.695       5.434       5.273       5.113       4.949       4.861       4.773       4.585       4.346    
        4.176       4.039       3.927       3.757       3.541       3.291       2.922       2.575       2.333       2.071    
        1.815       1.605       1.375       1.094      0.7669      0.5136      0.3642      0.2350      0.1206       0.000    
  50    10.00       9.873       9.740       9.603       9.480       9.348       9.210       9.057       8.916       8.776    
        8.580       8.390       8.230       8.028       7.821       7.678       7.501       7.257       6.901       6.548    
        6.098       5.669       5.442       5.278       5.111       4.978       4.872       4.754       4.531       4.305    
        4.164       4.051       3.920       3.744       3.544       3.305       2.932       2.577       2.340       2.105    
        1.861       1.597       1.338       1.037      0.7150      0.5255      0.3919      0.2656      0.1602       0.000    

 HEAD WILL BE SAVED ON UNIT   51 AT END OF TIME STEP  53, STRESS PERIOD    2

 DRAWDOWN WILL BE SAVED ON UNIT   52 AT END OF TIME STEP  53, STRESS PERIOD    2
1
  VOLUMETRIC BUDGET FOR ENTIRE MODEL AT END OF TIME STEP 53 IN STRESS PERIOD   2
  ------------------------------------------------------------------------------

     CUMULATIVE VOLUMES      L**3       RATES FOR THIS TIME STEP      L**3/T
     ------------------                 ------------------------

           IN:                                      IN:
           ---                                      ---
             STORAGE =       26213.8906               STORAGE =         478.7614
       CONSTANT HEAD =       20377.7617         CONSTANT HEAD =         391.5695
               WELLS =           0.0000                 WELLS =           0.0000

            TOTAL IN =       46591.6523              TOTAL IN =         870.3308

          OUT:                                     OUT:
          ----                                     ----
             STORAGE =       1.1143E-02               STORAGE =           0.0000
       CONSTANT HEAD =       20091.6406         CONSTANT HEAD =         370.3312
               WELLS =       26500.0000                 WELLS =         500.0000

           TOTAL OUT =       46591.6523             TOTAL OUT =         870.3312

            IN - OUT =           0.0000              IN - OUT =      -3.6621E-04

 PERCENT DISCREPANCY =           0.00     PERCENT DISCREPANCY =           0.00






          TIME SUMMARY AT END OF TIME STEP  53 IN STRESS PERIOD    2
                    SECONDS     MINUTES      HOURS       DAYS        YEARS
                    -----------------------------------------------------------
   TIME STEP LENGTH  86400.      1440.0      24.000      1.0000     2.73785E-03
 STRESS PERIOD TIME 4.57920E+06  76320.      1272.0      53.000     0.14511    
         TOTAL TIME 4.66560E+06  77760.      1296.0      54.000     0.14784    
1
 
 SOLVING FOR HEAD 

 OUTPUT CONTROL FOR STRESS PERIOD    2   TIME STEP  54
    SAVE HEAD FOR ALL LAYERS
    SAVE DRAWDOWN FOR ALL LAYERS
    SAVE BUDGET
    PRINT HEAD FOR ALL LAYERS
    PRINT BUDGET
 UBDSV1 SAVING "         STORAGE" ON UNIT  53 AT TIME STEP 54, STRESS PERIOD   2
 UBDSV2 SAVING "   CONSTANT HEAD" ON UNIT  53 AT TIME STEP 54, STRESS PERIOD   2
 UBDSV1 SAVING "FLOW RIGHT FACE " ON UNIT  53 AT TIME STEP 54, STRESS PERIOD   2
 UBDSV1 SAVING "FLOW FRONT FACE " ON UNIT  53 AT TIME STEP 54, STRESS PERIOD   2
1
              HEAD IN LAYER   1 AT END OF TIME STEP  54 IN STRESS PERIOD    2
  ---------------------------------------------------------------------------

            1           2           3           4           5           6           7           8           9          10
           11          12          13          14          15          16          17          18          19          20
           21          22          23          24          25          26          27          28          29          30
           31          32          33          34          35          36          37          38          39          40
           41          42          43          44          45          46          47          48          49          50
 ........................................................................................................................
   1    10.00       9.952       9.904       9.848       9.804       9.766       9.717       9.647       9.572       9.503    
        9.350       9.158       9.016       8.858       8.690       8.520       8.362       8.181       7.938       7.697    
        7.532       7.344       7.095       6.843       6.618       6.422       6.143       5.888       5.708       5.519    
        5.357       5.251       5.138       5.009       4.885       4.731       4.566       4.342       4.085       3.804    
        3.442       3.073       2.588       2.059       1.661       1.374       1.159      0.9143      0.5367       0.000    
   2    10.00       9.947       9.896       9.848       9.811       9.775       9.719       9.649       9.579       9.486    
        9.336       9.164       9.005       8.861       8.706       8.530       8.343       8.156       7.930       7.687    
        7.507       7.352       7.087       6.815       6.615       6.393       6.123       5.880       5.673       5.495    
        5.357       5.261       5.165       5.027       4.882       4.729       4.539       4.330       4.082       3.761    
        3.422       3.108       2.600       2.074       1.721       1.465       1.218      0.9443      0.5701       0.000    
   3    10.00       9.939       9.896       9.863       9.827       9.789       9.730       9.646       9.562       9.460    
        9.324       9.172       9.018       8.873       8.688       8.468       8.285       8.124       7.916       7.702    
        7.518       7.297       7.035       6.795       6.577       6.329       6.070       5.830       5.617       5.484    
        5.372       5.280       5.183       5.032       4.879       4.717       4.528       4.295       4.017       3.772    
        3.472       3.044       2.548       2.170       1.870       1.573       1.269      0.9571      0.5403       0.000    
   4    10.00       9.939       9.901       9.871       9.846       9.806       9.738       9.641       9.541       9.440    
        9.310       9.174       9.020       8.837       8.610       8.406       8.275       8.093       7.892       7.725    
        7.472       7.192       6.962       6.748       6.538       6.240       5.953       5.761       5.617       5.503    
        5.402       5.305       5.200       5.024       4.836       4.689       4.490       4.248       4.011       3.796    
        3.456       2.984       2.609       2.291       1.969       1.632       1.265      0.9010      0.4617       0.000    
   5    10.00       9.944       9.909       9.879       9.857       9.816       9.743       9.633       9.522       9.420    
        9.310       9.169       8.972       8.758       8.566       8.404       8.241       8.071       7.883       7.647    
        7.354       7.122       6.931       6.715       6.444       6.135       5.900       5.763       5.644       5.529    
        5.413       5.295       5.175       5.005       4.813       4.635       4.457       4.267       4.051       3.768    
        3.382       3.022       2.702       2.381       2.029       1.636       1.177      0.7586      0.3928       0.000    
   6    10.00       9.953       9.919       9.890       9.859       9.814       9.737       9.618       9.521       9.412    
        9.288       9.114       8.898       8.720       8.542       8.358       8.192       8.040       7.829       7.561    
        7.301       7.080       6.884       6.616       6.322       6.089       5.898       5.770       5.638       5.519    
        5.416       5.286       5.137       4.962       4.775       4.622       4.468       4.295       4.068       3.763    
        3.425       3.078       2.751       2.427       2.045       1.570       1.075      0.7133      0.3672       0.000    
   7    10.00       9.959       9.930       9.899       9.866       9.812       9.708       9.593       9.493       9.358    
        9.231       9.045       8.849       8.666       8.484       8.297       8.134       7.994       7.752       7.467    
        7.231       7.006       6.788       6.528       6.278       6.065       5.898       5.745       5.603       5.511    
        5.406       5.263       5.104       4.928       4.767       4.632       4.488       4.311       4.079       3.801    
        3.466       3.109       2.769       2.412       2.035       1.536       1.028      0.6793      0.3215       0.000    
   8    10.00       9.966       9.940       9.907       9.868       9.781       9.654       9.545       9.419       9.291    
        9.151       8.960       8.794       8.607       8.403       8.220       8.079       7.912       7.683       7.406    
        7.132       6.926       6.744       6.477       6.217       6.027       5.838       5.673       5.576       5.486    
        5.361       5.218       5.084       4.930       4.763       4.622       4.513       4.378       4.152       3.833    
        3.466       3.148       2.831       2.415       1.995       1.438      0.9525      0.6653      0.3079       0.000    
   9    10.00       9.973       9.943       9.906       9.841       9.726       9.591       9.464       9.354       9.221    
        9.056       8.887       8.720       8.541       8.330       8.159       8.026       7.829       7.603       7.320    
        7.083       6.877       6.620       6.347       6.127       5.958       5.768       5.629       5.536       5.432    
        5.319       5.190       5.064       4.929       4.786       4.653       4.543       4.423       4.189       3.843    
        3.506       3.223       2.889       2.489       1.867       1.238      0.9075      0.5627      0.2146       0.000    
  10    10.00       9.973       9.942       9.890       9.791       9.653       9.504       9.405       9.300       9.144    
        8.999       8.831       8.666       8.472       8.277       8.122       7.944       7.740       7.501       7.272    
        7.039       6.723       6.458       6.243       6.056       5.903       5.728       5.587       5.493       5.409    
        5.288       5.150       5.037       4.913       4.787       4.696       4.587       4.448       4.180       3.837    
        3.574       3.325       2.942       2.338       1.618       1.162      0.8236      0.5030      0.2509       0.000    
  11    10.00       9.973       9.932       9.851       9.739       9.586       9.453       9.370       9.245       9.112    
        8.973       8.797       8.598       8.391       8.226       8.060       7.893       7.673       7.441       7.215    
        6.883       6.579       6.367       6.173       5.992       5.823       5.657       5.546       5.469       5.385    
        5.248       5.118       5.025       4.914       4.812       4.711       4.587       4.436       4.184       3.911    
        3.633       3.309       2.892       2.226       1.552       1.093      0.7718      0.5856      0.3235       0.000    
  12    10.00       9.971       9.913       9.809       9.663       9.510       9.405       9.323       9.213       9.093    
        8.940       8.753       8.554       8.370       8.202       8.018       7.825       7.601       7.364       7.057    
        6.729       6.498       6.290       6.092       5.892       5.724       5.607       5.525       5.425       5.316    
        5.194       5.099       5.017       4.930       4.840       4.739       4.606       4.423       4.190       3.944    
        3.646       3.294       2.722       1.973       1.399       1.076      0.8569      0.6214      0.3543       0.000    
  13    10.00       9.962       9.872       9.729       9.577       9.445       9.361       9.288       9.195       9.078    
        8.917       8.723       8.539       8.392       8.197       7.971       7.746       7.502       7.239       6.939    
        6.651       6.401       6.175       5.970       5.778       5.655       5.581       5.465       5.337       5.239    
        5.162       5.087       5.013       4.941       4.855       4.766       4.646       4.437       4.199       3.908    
        3.565       3.120       2.457       1.850       1.433       1.157      0.9009      0.6230      0.3078       0.000    
  14    10.00       9.930       9.801       9.644       9.503       9.399       9.342       9.275       9.186       9.059    
        8.881       8.715       8.564       8.410       8.190       7.923       7.681       7.405       7.111       6.799    
        6.520       6.270       6.046       5.844       5.694       5.610       5.519       5.378       5.270       5.196    
        5.141       5.071       5.009       4.940       4.863       4.792       4.651       4.438       4.186       3.822    
        3.419       2.894       2.384       1.940       1.525       1.201      0.9169      0.6236      0.2778       0.000    
  15    10.00       9.870       9.726       9.585       9.472       9.393       9.330       9.267       9.178       9.060    
        8.902       8.740       8.592       8.375       8.118       7.862       7.592       7.306       6.956       6.623    
        6.363       6.121       5.911       5.756       5.644       5.554       5.443       5.312       5.223       5.170    
        5.107       5.050       5.003       4.938       4.866       4.790       4.640       4.438       4.121       3.728    
        3.310       2.839       2.425       1.968       1.618       1.273      0.9284      0.6177      0.2534       0.000    
  16    10.00       9.848       9.693       9.564       9.466       9.394       9.329       9.271       9.185       9.062    
        8.915       8.759       8.576       8.301       8.020       7.807       7.542       7.158       6.759       6.449    
        6.181       5.979       5.808       5.675       5.552       5.470       5.349       5.242       5.174       5.114    
        5.068       5.032       4.982       4.923       4.859       4.771       4.634       4.389       4.043       3.687    
        3.330       2.876       2.410       2.007       1.677       1.315      0.9258      0.5537      0.2084       0.000    
  17    10.00       9.828       9.672       9.568       9.481       9.408       9.345       9.279       9.186       9.071    
        8.933       8.738       8.488       8.191       7.954       7.753       7.429       6.997       6.591       6.292    
        6.077       5.851       5.660       5.521       5.418       5.316       5.210       5.143       5.088       5.055    
        5.038       5.005       4.953       4.895       4.828       4.734       4.572       4.359       4.080       3.707    
        3.299       2.820       2.391       2.034       1.696       1.324      0.9455      0.5770      0.2439       0.000    
  18    10.00       9.818       9.671       9.582       9.503       9.433       9.370       9.290       9.199       9.075    
        8.910       8.680       8.401       8.150       7.918       7.622       7.245       6.851       6.493       6.199    
        5.933       5.644       5.479       5.362       5.273       5.157       5.089       5.031       4.996       5.000    
        4.992       4.963       4.912       4.847       4.779       4.678       4.524       4.351       4.110       3.766    
        3.237       2.727       2.376       2.036       1.749       1.358      0.9404      0.5658      0.2438       0.000    
  19    10.00       9.826       9.703       9.611       9.528       9.457       9.383       9.309       9.225       9.082    
        8.888       8.641       8.365       8.086       7.779       7.458       7.109       6.728       6.368       6.055    
        5.747       5.494       5.362       5.272       5.146       5.043       4.985       4.933       4.924       4.925    
        4.929       4.911       4.851       4.792       4.736       4.658       4.513       4.324       4.081       3.677    
        3.145       2.712       2.362       2.029       1.706       1.303      0.9035      0.5624      0.2651       0.000    
  20    10.00       9.836       9.731       9.650       9.570       9.486       9.398       9.319       9.234       9.089    
        8.877       8.621       8.300       7.936       7.584       7.322       6.970       6.562       6.244       5.934    
        5.659       5.449       5.289       5.152       4.991       4.919       4.881       4.855       4.859       4.859    
        4.863       4.837       4.788       4.753       4.706       4.627       4.461       4.270       3.993       3.541    
        3.082       2.736       2.332       1.951       1.600       1.203      0.9062      0.5586      0.2477       0.000    
  21    10.00       9.860       9.766       9.684       9.596       9.516       9.419       9.333       9.241       9.078    
        8.850       8.537       8.136       7.710       7.381       7.142       6.811       6.512       6.214       5.878    
        5.616       5.385       5.184       4.925       4.792       4.755       4.699       4.736       4.769       4.767    
        4.763       4.735       4.725       4.706       4.667       4.560       4.397       4.231       3.827       3.357    
        3.015       2.642       2.229       1.875       1.502       1.154      0.8205      0.4921      0.2472       0.000    
  22    10.00       9.890       9.791       9.703       9.618       9.542       9.432       9.320       9.213       9.044    
        8.765       8.371       7.919       7.519       7.236       6.987       6.734       6.518       6.190       5.860    
        5.585       5.254       4.894       4.623       4.522       4.424       4.438       4.542       4.582       4.603    
        4.621       4.619       4.641       4.653       4.616       4.505       4.340       4.035       3.576       3.275    
        2.907       2.505       2.134       1.793       1.475       1.063      0.7120      0.4718      0.2652       0.000    
  23    10.00       9.891       9.796       9.716       9.627       9.526       9.402       9.301       9.206       8.994    
        8.652       8.228       7.815       7.466       7.176       6.964       6.726       6.443       6.129       5.866    
        5.483       4.997       4.612       4.335       3.929       3.930       4.147       4.269       4.358       4.444    
        4.484       4.516       4.552       4.579       4.546       4.434       4.194       3.841       3.466       3.097    
        2.746       2.413       2.056       1.787       1.385      0.9661      0.6926      0.4536      0.2356       0.000    
  24    10.00       9.915       9.808       9.702       9.599       9.484       9.372       9.285       9.179       8.929    
        8.539       8.139       7.797       7.492       7.215       6.938       6.646       6.388       6.139       5.830    
        5.373       4.891       4.433       3.596       2.704       3.225       3.725       4.018       4.182       4.317    
        4.390       4.437       4.482       4.492       4.455       4.311       4.043       3.753       3.341       2.947    
        2.673       2.353       2.015       1.671       1.240      0.8963      0.6661      0.4249      0.1875       0.000    
  25    10.00       9.908       9.783       9.654       9.533       9.429       9.343       9.256       9.125       8.865    
        8.456       8.083       7.821       7.536       7.216       6.928       6.655       6.429       6.198       5.801    
        5.277       4.802       4.070       2.711     -0.1285       2.611       3.402       3.864       4.107       4.248    
        4.333       4.388       4.427       4.423       4.373       4.212       3.927       3.587       3.252       2.919    
        2.606       2.259       1.875       1.512       1.103      0.8228      0.6632      0.4129      0.1531       0.000    
  26    10.00       9.884       9.724       9.580       9.482       9.397       9.313       9.206       9.051       8.730    
        8.349       8.088       7.836       7.552       7.252       6.976       6.719       6.495       6.205       5.782    
        5.321       4.797       4.156       3.422       2.747       3.104       3.575       3.900       4.099       4.228    
        4.308       4.365       4.386       4.369       4.295       4.102       3.784       3.510       3.241       2.884    
        2.559       2.167       1.726       1.336       1.002      0.8050      0.6270      0.3678      0.1566       0.000    
  27    10.00       9.859       9.688       9.553       9.471       9.360       9.249       9.113       8.906       8.600    
        8.330       8.099       7.843       7.566       7.272       7.053       6.876       6.574       6.208       5.777    
        5.386       5.006       4.491       4.008       3.626       3.685       3.865       4.025       4.151       4.242    
        4.324       4.370       4.372       4.333       4.231       4.009       3.756       3.516       3.203       2.868    
        2.532       2.059       1.555       1.189      0.9563      0.7916      0.5960      0.3887      0.1874       0.000    
  28    10.00       9.840       9.715       9.564       9.423       9.287       9.164       9.003       8.796       8.559    
        8.336       8.129       7.875       7.567       7.305       7.129       6.931       6.599       6.174       5.794    
        5.517       5.233       4.829       4.453       4.210       4.130       4.124       4.173       4.253       4.327    
        4.377       4.387       4.372       4.310       4.175       3.974       3.772       3.489       3.164       2.826    
        2.416       1.971       1.471       1.108      0.9456      0.7882      0.6143      0.4059      0.1882       0.000    
  29    10.00       9.845       9.690       9.529       9.361       9.230       9.090       8.911       8.736       8.547    
        8.349       8.143       7.896       7.636       7.412       7.203       6.940       6.571       6.183       5.887    
        5.652       5.403       5.071       4.737       4.539       4.431       4.363       4.360       4.397       4.419    
        4.420       4.410       4.375       4.288       4.134       3.962       3.774       3.511       3.151       2.724    
        2.349       1.876       1.377       1.092      0.9485      0.7937      0.6095      0.3964      0.1971       0.000    
  30    10.00       9.823       9.666       9.473       9.302       9.181       9.031       8.874       8.739       8.569    
        8.366       8.144       7.918       7.710       7.511       7.276       6.940       6.597       6.287       6.006    
        5.803       5.558       5.256       4.966       4.728       4.631       4.567       4.540       4.515       4.491    
        4.463       4.434       4.377       4.264       4.123       3.987       3.799       3.460       3.016       2.579    
        2.199       1.765       1.385       1.121      0.9699      0.7953      0.5987      0.4154      0.2038       0.000    
  31    10.00       9.799       9.618       9.433       9.279       9.153       9.011       8.872       8.738       8.572    
        8.371       8.147       7.952       7.780       7.593       7.328       6.996       6.698       6.455       6.206    
        5.990       5.714       5.417       5.172       4.929       4.772       4.706       4.643       4.596       4.546    
        4.507       4.454       4.374       4.263       4.127       3.974       3.677       3.298       2.928       2.502    
        2.143       1.710       1.340       1.149      0.9876      0.8233      0.6187      0.4158      0.1971       0.000    
  32    10.00       9.784       9.589       9.431       9.300       9.175       9.027       8.868       8.705       8.549    
        8.350       8.156       7.983       7.793       7.619       7.394       7.137       6.913       6.663       6.406    
        6.190       5.931       5.631       5.369       5.116       4.893       4.806       4.724       4.656       4.586    
        4.530       4.478       4.372       4.234       4.106       3.893       3.525       3.168       2.843       2.454    
        2.036       1.633       1.361       1.214       1.038      0.8302      0.6139      0.3949      0.1970       0.000    
  33    10.00       9.777       9.610       9.483       9.353       9.208       9.029       8.853       8.678       8.499    
        8.334       8.171       8.000       7.819       7.625       7.451       7.263       7.073       6.868       6.617    
        6.365       6.123       5.871       5.565       5.254       5.001       4.871       4.789       4.705       4.616    
        4.551       4.474       4.359       4.226       4.039       3.744       3.367       3.065       2.752       2.300    
        1.919       1.656       1.441       1.266       1.065      0.8463      0.5814      0.3474      0.1565       0.000    
  34    10.00       9.797       9.660       9.541       9.397       9.218       9.030       8.824       8.631       8.482    
        8.333       8.185       8.030       7.844       7.673       7.505       7.343       7.191       6.995       6.741    
        6.502       6.283       6.034       5.716       5.374       5.091       4.924       4.826       4.732       4.632    
        4.546       4.462       4.347       4.181       3.952       3.587       3.220       2.950       2.578       2.179    
        1.945       1.772       1.565       1.340       1.075      0.7675      0.4697      0.2781      0.1153       0.000    
  35    10.00       9.830       9.707       9.586       9.432       9.231       9.016       8.787       8.604       8.476    
        8.377       8.228       8.056       7.858       7.676       7.557       7.438       7.283       7.080       6.838    
        6.610       6.393       6.164       5.806       5.419       5.149       4.966       4.854       4.745       4.631    
        4.544       4.446       4.310       4.090       3.733       3.354       3.110       2.829       2.449       2.210    
        2.047       1.851       1.642       1.423       1.087      0.6526      0.3607      0.2371      0.1204       0.000    
  36    10.00       9.850       9.743       9.628       9.464       9.225       8.963       8.748       8.616       8.517    
        8.383       8.213       8.056       7.881       7.721       7.602       7.489       7.352       7.192       6.968    
        6.732       6.503       6.220       5.835       5.453       5.179       5.005       4.873       4.737       4.623    
        4.524       4.398       4.180       3.852       3.525       3.266       3.037       2.743       2.442       2.284    
        2.118       1.942       1.731       1.448      0.9920      0.5495      0.3388      0.2168      0.1114       0.000    
  37    10.00       9.866       9.783       9.658       9.440       9.180       8.948       8.780       8.672       8.553    
        8.379       8.197       8.062       7.910       7.762       7.648       7.545       7.417       7.248       7.054    
        6.861       6.611       6.257       5.892       5.529       5.219       5.008       4.842       4.717       4.597    
        4.473       4.286       3.960       3.662       3.434       3.211       2.975       2.744       2.530       2.353    
        2.194       1.996       1.757       1.385      0.9092      0.5299      0.3174      0.2017      0.1012       0.000    
  38    10.00       9.886       9.786       9.650       9.423       9.155       8.959       8.835       8.722       8.582    
        8.398       8.207       8.074       7.935       7.788       7.674       7.584       7.473       7.307       7.139    
        6.961       6.674       6.272       5.876       5.517       5.212       4.982       4.797       4.674       4.561    
        4.393       4.085       3.797       3.611       3.386       3.165       2.996       2.801       2.605       2.436    
        2.248       1.978       1.675       1.271      0.7989      0.5078      0.3572      0.2226      9.9887E-02   0.000    
  39    10.00       9.885       9.772       9.629       9.410       9.167       8.990       8.880       8.742       8.588    
        8.438       8.246       8.094       7.962       7.820       7.700       7.598       7.489       7.356       7.203    
        6.997       6.689       6.271       5.828       5.458       5.173       4.912       4.722       4.627       4.518    
        4.257       3.940       3.762       3.550       3.340       3.184       3.043       2.866       2.676       2.518    
        2.246       1.863       1.506       1.070      0.7127      0.5501      0.4096      0.2667      0.1372       0.000    
  40    10.00       9.876       9.776       9.631       9.430       9.226       9.054       8.908       8.745       8.603    
        8.491       8.305       8.113       7.979       7.848       7.711       7.599       7.513       7.397       7.214    
        6.976       6.621       6.196       5.780       5.401       5.104       4.809       4.660       4.575       4.429    
        4.193       3.957       3.717       3.498       3.351       3.216       3.082       2.917       2.742       2.534    
        2.166       1.749       1.362       1.010      0.7647      0.5972      0.4572      0.3227      0.1584       0.000    
  41    10.00       9.893       9.813       9.672       9.465       9.253       9.089       8.958       8.798       8.629    
        8.496       8.326       8.149       8.023       7.871       7.707       7.610       7.518       7.367       7.167    
        6.920       6.574       6.147       5.742       5.364       4.967       4.694       4.614       4.522       4.413    
        4.227       3.943       3.702       3.529       3.383       3.263       3.116       2.958       2.777       2.453    
        2.022       1.616       1.279       1.020      0.8076      0.6522      0.5025      0.3550      0.1869       0.000    
  42    10.00       9.920       9.832       9.696       9.518       9.316       9.130       8.996       8.852       8.666    
        8.495       8.333       8.182       8.061       7.901       7.729       7.611       7.485       7.320       7.092    
        6.809       6.429       6.057       5.654       5.162       4.810       4.669       4.606       4.527       4.410    
        4.192       3.944       3.719       3.545       3.428       3.299       3.169       2.999       2.710       2.280    
        1.904       1.601       1.309       1.015      0.8181      0.6860      0.5424      0.3697      0.2051       0.000    
  43    10.00       9.937       9.842       9.703       9.527       9.359       9.195       9.044       8.866       8.674    
        8.517       8.353       8.205       8.093       7.943       7.749       7.593       7.448       7.222       6.932    
        6.654       6.289       5.945       5.484       5.021       4.791       4.680       4.607       4.532       4.409    
        4.202       3.976       3.760       3.590       3.478       3.351       3.181       2.937       2.515       2.134    
        1.899       1.631       1.323       1.019      0.8102      0.6879      0.5772      0.3999      0.1874       0.000    
  44    10.00       9.929       9.849       9.704       9.544       9.423       9.258       9.053       8.851       8.692    
        8.535       8.371       8.240       8.123       7.948       7.741       7.562       7.389       7.122       6.830    
        6.499       6.135       5.769       5.309       4.962       4.792       4.698       4.635       4.552       4.398    
        4.187       4.006       3.816       3.658       3.543       3.369       3.143       2.794       2.365       2.113    
        1.898       1.617       1.311       1.033      0.8203      0.6900      0.5777      0.3917      0.1726       0.000    
  45    10.00       9.915       9.819       9.702       9.585       9.431       9.257       9.062       8.861       8.701    
        8.538       8.390       8.275       8.141       7.950       7.727       7.527       7.331       7.042       6.699    
        6.318       5.932       5.539       5.201       4.963       4.819       4.728       4.660       4.557       4.430    
        4.248       4.042       3.873       3.710       3.546       3.362       3.115       2.742       2.370       2.076    
        1.831       1.567       1.280       1.032      0.8463      0.7381      0.5703      0.3395      0.1548       0.000    
  46    10.00       9.897       9.797       9.704       9.572       9.395       9.227       9.067       8.870       8.698    
        8.555       8.417       8.301       8.140       7.937       7.738       7.526       7.269       6.956       6.584    
        6.137       5.754       5.440       5.184       5.003       4.876       4.764       4.673       4.591       4.450    
        4.257       4.079       3.912       3.726       3.562       3.387       3.108       2.679       2.288       2.026    
        1.796       1.542       1.273       1.055      0.9112      0.7720      0.5173      0.2543      0.1106       0.000    
  47    10.00       9.891       9.789       9.661       9.508       9.362       9.217       9.045       8.865       8.712    
        8.580       8.457       8.294       8.120       7.937       7.744       7.510       7.211       6.919       6.467    
        5.982       5.683       5.414       5.213       5.045       4.921       4.808       4.698       4.603       4.457    
        4.255       4.079       3.911       3.735       3.593       3.381       2.994       2.609       2.282       2.003    
        1.801       1.562       1.322       1.111      0.9334      0.7085      0.4258      0.2225      9.2681E-02   0.000    
  48    10.00       9.878       9.757       9.620       9.481       9.352       9.205       9.047       8.880       8.730    
        8.597       8.452       8.274       8.094       7.915       7.724       7.500       7.218       6.855       6.406    
        5.987       5.681       5.419       5.235       5.098       4.946       4.832       4.740       4.622       4.424    
        4.226       4.054       3.900       3.770       3.583       3.303       2.935       2.588       2.279       2.033    
        1.815       1.587       1.371       1.133      0.8659      0.5759      0.3640      0.2159      9.7538E-02   0.000    
  49    10.00       9.868       9.735       9.601       9.487       9.353       9.198       9.043       8.908       8.752    
        8.592       8.410       8.235       8.084       7.880       7.694       7.508       7.193       6.833       6.477    
        6.035       5.694       5.433       5.272       5.111       4.947       4.859       4.771       4.583       4.344    
        4.174       4.037       3.925       3.756       3.540       3.290       2.921       2.575       2.332       2.071    
        1.814       1.605       1.375       1.094      0.7668      0.5135      0.3641      0.2350      0.1206       0.000    
  50    10.00       9.873       9.740       9.603       9.479       9.348       9.209       9.057       8.915       8.776    
        8.579       8.390       8.229       8.027       7.820       7.677       7.500       7.256       6.900       6.547    
        6.097       5.667       5.441       5.277       5.110       4.976       4.870       4.752       4.529       4.303    
        4.162       4.049       3.919       3.743       3.543       3.304       2.931       2.576       2.340       2.105    
        1.861       1.597       1.338       1.037      0.7149      0.5255      0.3918      0.2656      0.1602       0.000    

 HEAD WILL BE SAVED ON UNIT   51 AT END OF TIME STEP  54, STRESS PERIOD    2

 DRAWDOWN WILL BE SAVED ON UNIT   52 AT END OF TIME STEP  54, STRESS PERIOD    2
1
  VOLUMETRIC BUDGET FOR ENTIRE MODEL AT END OF TIME STEP 54 IN STRESS PERIOD   2
  ------------------------------------------------------------------------------

     CUMULATIVE VOLUMES      L**3       RATES FOR THIS TIME STEP      L**3/T
     ------------------                 ------------------------

           IN:                                      IN:
           ---                                      ---
             STORAGE =       26691.5781               STORAGE =         477.6881
       CONSTANT HEAD =       20770.2363         CONSTANT HEAD =         392.4738
               WELLS =           0.0000                 WELLS =           0.0000

            TOTAL IN =       47461.8125              TOTAL IN =         870.1619

          OUT:                                     OUT:
          ----                                     ----
             STORAGE =       1.1143E-02               STORAGE =           0.0000
       CONSTANT HEAD =       20461.8027         CONSTANT HEAD =         370.1616
               WELLS =       27000.0000                 WELLS =         500.0000

           TOTAL OUT =       47461.8125             TOTAL OUT =         870.1616

            IN - OUT =           0.0000              IN - OUT =       3.0518E-04

 PERCENT DISCREPANCY =           0.00     PERCENT DISCREPANCY =           0.00






          TIME SUMMARY AT END OF TIME STEP  54 IN STRESS PERIOD    2
                    SECONDS     MINUTES      HOURS       DAYS        YEARS
                    -----------------------------------------------------------
   TIME STEP LENGTH  86400.      1440.0      24.000      1.0000     2.73785E-03
 STRESS PERIOD TIME 4.66560E+06  77760.      1296.0      54.000     0.14784    
         TOTAL TIME 4.75200E+06  79200.      1320.0      55.000     0.15058    
1
 
 SOLVING FOR HEAD 

 OUTPUT CONTROL FOR STRESS PERIOD    2   TIME STEP  55
    SAVE HEAD FOR ALL LAYERS
    SAVE DRAWDOWN FOR ALL LAYERS
    SAVE BUDGET
    PRINT HEAD FOR ALL LAYERS
    PRINT BUDGET
 UBDSV1 SAVING "         STORAGE" ON UNIT  53 AT TIME STEP 55, STRESS PERIOD   2
 UBDSV2 SAVING "   CONSTANT HEAD" ON UNIT  53 AT TIME STEP 55, STRESS PERIOD   2
 UBDSV1 SAVING "FLOW RIGHT FACE " ON UNIT  53 AT TIME STEP 55, STRESS PERIOD   2
 UBDSV1 SAVING "FLOW FRONT FACE " ON UNIT  53 AT TIME STEP 55, STRESS PERIOD   2
1
              HEAD IN LAYER   1 AT END OF TIME STEP  55 IN STRESS PERIOD    2
  ---------------------------------------------------------------------------

            1           2           3           4           5           6           7           8           9          10
           11          12          13          14          15          16          17          18          19          20
           21          22          23          24          25          26          27          28          29          30
           31          32          33          34          35          36          37          38          39          40
           41          42          43          44          45          46          47          48          49          50
 ........................................................................................................................
   1    10.00       9.952       9.904       9.848       9.804       9.766       9.716       9.647       9.571       9.502    
        9.349       9.157       9.015       8.857       8.689       8.518       8.360       8.179       7.936       7.695    
        7.529       7.341       7.092       6.840       6.615       6.419       6.139       5.884       5.704       5.515    
        5.352       5.247       5.134       5.005       4.881       4.728       4.562       4.339       4.083       3.802    
        3.440       3.071       2.587       2.058       1.660       1.373       1.159      0.9139      0.5365       0.000    
   2    10.00       9.947       9.896       9.848       9.811       9.774       9.719       9.648       9.579       9.485    
        9.335       9.163       9.004       8.860       8.704       8.529       8.341       8.154       7.928       7.684    
        7.504       7.349       7.084       6.811       6.611       6.389       6.119       5.876       5.669       5.490    
        5.353       5.256       5.160       5.023       4.878       4.726       4.536       4.327       4.079       3.759    
        3.420       3.107       2.598       2.073       1.720       1.465       1.218      0.9439      0.5699       0.000    
   3    10.00       9.938       9.896       9.862       9.827       9.789       9.729       9.645       9.561       9.459    
        9.323       9.171       9.017       8.872       8.686       8.466       8.283       8.121       7.913       7.699    
        7.515       7.294       7.032       6.791       6.573       6.325       6.066       5.825       5.612       5.479    
        5.368       5.275       5.179       5.028       4.875       4.713       4.525       4.292       4.014       3.769    
        3.470       3.042       2.546       2.169       1.869       1.572       1.268      0.9567      0.5401       0.000    
   4    10.00       9.938       9.901       9.871       9.846       9.806       9.737       9.640       9.541       9.439    
        9.309       9.172       9.019       8.836       8.608       8.404       8.273       8.091       7.889       7.722    
        7.469       7.189       6.958       6.744       6.533       6.236       5.949       5.756       5.612       5.498    
        5.397       5.300       5.196       5.020       4.832       4.685       4.486       4.245       4.008       3.794    
        3.453       2.982       2.608       2.290       1.968       1.631       1.265      0.9006      0.4616       0.000    
   5    10.00       9.944       9.909       9.879       9.857       9.816       9.743       9.632       9.521       9.419    
        9.309       9.168       8.971       8.757       8.564       8.402       8.239       8.069       7.880       7.644    
        7.350       7.118       6.927       6.710       6.439       6.130       5.895       5.758       5.639       5.524    
        5.408       5.290       5.170       5.000       4.809       4.631       4.453       4.263       4.048       3.765    
        3.379       3.020       2.700       2.380       2.028       1.635       1.176      0.7583      0.3927       0.000    
   6    10.00       9.953       9.919       9.890       9.859       9.814       9.736       9.617       9.520       9.411    
        9.287       9.113       8.896       8.718       8.540       8.356       8.189       8.037       7.826       7.558    
        7.297       7.075       6.879       6.611       6.317       6.083       5.892       5.764       5.632       5.513    
        5.411       5.281       5.132       4.957       4.770       4.618       4.463       4.291       4.065       3.760    
        3.423       3.076       2.749       2.425       2.044       1.569       1.075      0.7130      0.3671       0.000    
   7    10.00       9.959       9.929       9.899       9.866       9.811       9.707       9.593       9.492       9.357    
        9.230       9.044       8.847       8.664       8.481       8.294       8.131       7.991       7.748       7.462    
        7.226       7.001       6.782       6.522       6.272       6.059       5.892       5.739       5.597       5.504    
        5.400       5.257       5.098       4.922       4.762       4.626       4.483       4.307       4.075       3.798    
        3.463       3.106       2.767       2.410       2.033       1.535       1.028      0.6789      0.3214       0.000    
   8    10.00       9.966       9.939       9.906       9.868       9.780       9.653       9.544       9.418       9.290    
        9.149       8.959       8.791       8.605       8.400       8.216       8.075       7.908       7.678       7.401    
        7.127       6.920       6.738       6.471       6.211       6.021       5.831       5.665       5.569       5.479    
        5.354       5.211       5.077       4.923       4.757       4.617       4.507       4.373       4.147       3.829    
        3.462       3.145       2.829       2.413       1.993       1.437      0.9520      0.6650      0.3078       0.000    
   9    10.00       9.973       9.943       9.906       9.841       9.725       9.590       9.463       9.352       9.220    
        9.054       8.884       8.718       8.538       8.327       8.155       8.022       7.825       7.598       7.315    
        7.077       6.871       6.613       6.339       6.119       5.950       5.760       5.622       5.528       5.425    
        5.311       5.183       5.056       4.922       4.779       4.647       4.537       4.417       4.184       3.839    
        3.502       3.220       2.887       2.487       1.866       1.237      0.9070      0.5624      0.2145       0.000    
  10    10.00       9.973       9.942       9.890       9.790       9.653       9.503       9.404       9.299       9.142    
        8.997       8.829       8.663       8.469       8.273       8.118       7.939       7.735       7.495       7.265    
        7.032       6.716       6.450       6.234       6.048       5.895       5.720       5.578       5.485       5.400    
        5.280       5.142       5.029       4.905       4.780       4.689       4.580       4.442       4.174       3.833    
        3.570       3.322       2.940       2.336       1.617       1.161      0.8231      0.5027      0.2508       0.000    
  11    10.00       9.973       9.932       9.850       9.739       9.585       9.452       9.369       9.243       9.110    
        8.970       8.794       8.595       8.387       8.222       8.055       7.888       7.668       7.435       7.209    
        6.875       6.570       6.358       6.164       5.983       5.814       5.648       5.537       5.460       5.376    
        5.239       5.110       5.017       4.906       4.804       4.704       4.580       4.430       4.179       3.906    
        3.629       3.306       2.890       2.224       1.551       1.092      0.7714      0.5852      0.3233       0.000    
  12    10.00       9.971       9.913       9.808       9.662       9.509       9.404       9.321       9.211       9.090    
        8.937       8.750       8.550       8.365       8.197       8.013       7.820       7.594       7.357       7.050    
        6.720       6.489       6.280       6.082       5.883       5.714       5.598       5.515       5.415       5.307    
        5.185       5.090       5.008       4.921       4.832       4.731       4.599       4.417       4.184       3.939    
        3.641       3.290       2.720       1.971       1.398       1.075      0.8564      0.6210      0.3541       0.000    
  13    10.00       9.962       9.871       9.728       9.575       9.444       9.359       9.286       9.192       9.076    
        8.914       8.719       8.535       8.388       8.193       7.966       7.740       7.496       7.231       6.930    
        6.642       6.392       6.165       5.959       5.768       5.645       5.571       5.455       5.327       5.229    
        5.152       5.078       5.004       4.932       4.846       4.758       4.638       4.431       4.193       3.902    
        3.561       3.117       2.455       1.848       1.432       1.156      0.9004      0.6226      0.3077       0.000    
  14    10.00       9.930       9.801       9.643       9.501       9.398       9.341       9.273       9.184       9.056    
        8.878       8.711       8.560       8.405       8.185       7.917       7.674       7.397       7.103       6.790    
        6.510       6.259       6.036       5.833       5.684       5.599       5.508       5.367       5.259       5.186    
        5.130       5.060       4.999       4.931       4.854       4.783       4.643       4.430       4.180       3.817    
        3.415       2.891       2.382       1.939       1.524       1.201      0.9164      0.6232      0.2776       0.000    
  15    10.00       9.869       9.725       9.584       9.471       9.391       9.328       9.265       9.176       9.057    
        8.899       8.737       8.588       8.370       8.112       7.855       7.584       7.298       6.947       6.613    
        6.353       6.110       5.900       5.745       5.632       5.543       5.432       5.300       5.212       5.159    
        5.096       5.040       4.992       4.928       4.857       4.780       4.632       4.430       4.114       3.723    
        3.306       2.835       2.423       1.966       1.616       1.272      0.9278      0.6174      0.2533       0.000    
  16    10.00       9.848       9.692       9.562       9.465       9.392       9.327       9.269       9.183       9.059    
        8.911       8.755       8.572       8.296       8.013       7.800       7.534       7.149       6.749       6.438    
        6.170       5.967       5.796       5.664       5.540       5.458       5.337       5.230       5.162       5.103    
        5.057       5.021       4.971       4.913       4.849       4.761       4.625       4.381       4.037       3.681    
        3.325       2.872       2.408       2.005       1.676       1.314      0.9253      0.5534      0.2083       0.000    
  17    10.00       9.828       9.671       9.567       9.480       9.406       9.343       9.277       9.183       9.068    
        8.930       8.734       8.483       8.185       7.947       7.745       7.420       6.987       6.580       6.281    
        6.065       5.838       5.648       5.508       5.406       5.304       5.198       5.131       5.076       5.043    
        5.027       4.993       4.942       4.884       4.818       4.724       4.563       4.351       4.073       3.701    
        3.294       2.817       2.388       2.032       1.695       1.324      0.9450      0.5766      0.2438       0.000    
  18    10.00       9.818       9.670       9.580       9.502       9.431       9.368       9.288       9.196       9.072    
        8.907       8.675       8.396       8.143       7.910       7.613       7.235       6.840       6.482       6.186    
        5.921       5.631       5.465       5.349       5.260       5.144       5.076       5.018       4.984       4.987    
        4.980       4.951       4.900       4.836       4.768       4.668       4.514       4.342       4.102       3.759    
        3.232       2.724       2.373       2.035       1.748       1.358      0.9399      0.5655      0.2437       0.000    
  19    10.00       9.826       9.702       9.610       9.527       9.456       9.381       9.307       9.222       9.079    
        8.884       8.636       8.359       8.079       7.770       7.449       7.098       6.717       6.355       6.042    
        5.734       5.480       5.348       5.258       5.132       5.029       4.972       4.920       4.910       4.912    
        4.916       4.899       4.840       4.781       4.724       4.647       4.503       4.315       4.073       3.671    
        3.141       2.709       2.359       2.027       1.705       1.302      0.9030      0.5622      0.2650       0.000    
  20    10.00       9.835       9.730       9.649       9.569       9.484       9.396       9.317       9.231       9.086    
        8.873       8.616       8.294       7.929       7.575       7.312       6.959       6.549       6.232       5.920    
        5.645       5.435       5.275       5.138       4.977       4.905       4.868       4.842       4.845       4.845    
        4.849       4.824       4.775       4.741       4.694       4.616       4.451       4.261       3.985       3.535    
        3.078       2.733       2.330       1.950       1.599       1.202      0.9057      0.5583      0.2476       0.000    
  21    10.00       9.859       9.765       9.683       9.595       9.514       9.417       9.331       9.238       9.074    
        8.845       8.531       8.129       7.701       7.371       7.131       6.800       6.500       6.201       5.865    
        5.603       5.371       5.170       4.910       4.777       4.740       4.684       4.722       4.755       4.753    
        4.749       4.722       4.712       4.693       4.655       4.549       4.386       4.222       3.820       3.352    
        3.011       2.639       2.227       1.873       1.501       1.154      0.8201      0.4919      0.2471       0.000    
  22    10.00       9.889       9.791       9.702       9.616       9.540       9.430       9.318       9.210       9.041    
        8.761       8.365       7.911       7.509       7.226       6.975       6.722       6.505       6.177       5.847    
        5.571       5.240       4.880       4.608       4.508       4.410       4.423       4.527       4.567       4.589    
        4.607       4.605       4.627       4.639       4.604       4.493       4.330       4.026       3.569       3.270    
        2.903       2.502       2.132       1.792       1.474       1.062      0.7117      0.4716      0.2651       0.000    
  23    10.00       9.891       9.796       9.715       9.625       9.525       9.400       9.298       9.204       8.990    
        8.646       8.221       7.807       7.456       7.165       6.953       6.714       6.430       6.116       5.852    
        5.469       4.983       4.597       4.320       3.914       3.914       4.132       4.254       4.343       4.429    
        4.469       4.501       4.537       4.565       4.532       4.422       4.184       3.833       3.460       3.092    
        2.742       2.410       2.054       1.785       1.384      0.9655      0.6922      0.4534      0.2355       0.000    
  24    10.00       9.915       9.807       9.701       9.597       9.482       9.370       9.282       9.176       8.925    
        8.533       8.131       7.788       7.482       7.204       6.926       6.634       6.375       6.126       5.817    
        5.358       4.876       4.418       3.581       2.688       3.209       3.710       4.002       4.166       4.301    
        4.374       4.421       4.467       4.477       4.442       4.299       4.033       3.744       3.335       2.943    
        2.669       2.350       2.013       1.669       1.239      0.8958      0.6658      0.4247      0.1874       0.000    
  25    10.00       9.907       9.782       9.653       9.531       9.427       9.341       9.253       9.122       8.861    
        8.450       8.075       7.812       7.527       7.205       6.916       6.643       6.417       6.185       5.787    
        5.262       4.787       4.054       2.695     -0.1456       2.595       3.386       3.848       4.091       4.232    
        4.317       4.373       4.411       4.408       4.359       4.200       3.917       3.580       3.246       2.915    
        2.602       2.257       1.873       1.510       1.102      0.8224      0.6628      0.4127      0.1530       0.000    
  26    10.00       9.884       9.723       9.578       9.480       9.395       9.310       9.203       9.048       8.725    
        8.342       8.080       7.827       7.543       7.242       6.964       6.707       6.482       6.191       5.768    
        5.307       4.783       4.141       3.406       2.731       3.088       3.559       3.884       4.083       4.212    
        4.292       4.349       4.371       4.355       4.281       4.090       3.774       3.502       3.235       2.879    
        2.555       2.164       1.724       1.335       1.002      0.8045      0.6266      0.3676      0.1565       0.000    
  27    10.00       9.858       9.687       9.552       9.469       9.358       9.246       9.110       8.902       8.595    
        8.324       8.092       7.835       7.557       7.262       7.042       6.864       6.562       6.195       5.763    
        5.371       4.992       4.476       3.992       3.610       3.669       3.849       4.009       4.135       4.227    
        4.309       4.354       4.357       4.319       4.217       3.997       3.746       3.508       3.197       2.863    
        2.528       2.057       1.553       1.188      0.9556      0.7911      0.5957      0.3885      0.1873       0.000    
  28    10.00       9.839       9.714       9.562       9.421       9.285       9.161       9.000       8.792       8.554    
        8.330       8.122       7.867       7.558       7.295       7.118       6.920       6.587       6.161       5.780    
        5.503       5.219       4.814       4.437       4.195       4.115       4.109       4.157       4.237       4.312    
        4.362       4.372       4.357       4.296       4.162       3.962       3.762       3.481       3.158       2.821    
        2.413       1.969       1.470       1.107      0.9449      0.7877      0.6139      0.4056      0.1881       0.000    
  29    10.00       9.845       9.689       9.528       9.359       9.227       9.087       8.907       8.732       8.542    
        8.343       8.137       7.889       7.627       7.402       7.193       6.929       6.559       6.170       5.874    
        5.638       5.389       5.057       4.722       4.524       4.415       4.347       4.345       4.382       4.404    
        4.405       4.395       4.360       4.275       4.122       3.951       3.764       3.503       3.145       2.719    
        2.345       1.874       1.375       1.091      0.9478      0.7931      0.6091      0.3961      0.1970       0.000    
  30    10.00       9.822       9.665       9.471       9.300       9.179       9.028       8.871       8.734       8.564    
        8.360       8.137       7.911       7.702       7.502       7.266       6.930       6.585       6.275       5.993    
        5.790       5.544       5.242       4.951       4.713       4.616       4.552       4.525       4.500       4.476    
        4.448       4.420       4.363       4.251       4.111       3.976       3.789       3.452       3.010       2.575    
        2.196       1.763       1.383       1.120      0.9692      0.7948      0.5983      0.4151      0.2037       0.000    
  31    10.00       9.799       9.617       9.432       9.277       9.151       9.008       8.868       8.733       8.567    
        8.365       8.141       7.945       7.772       7.584       7.319       6.986       6.687       6.443       6.194    
        5.978       5.700       5.403       5.158       4.914       4.757       4.692       4.628       4.581       4.532    
        4.493       4.440       4.361       4.251       4.115       3.963       3.668       3.291       2.923       2.498    
        2.140       1.708       1.339       1.148      0.9869      0.8227      0.6183      0.4155      0.1970       0.000    
  32    10.00       9.783       9.587       9.429       9.298       9.172       9.023       8.865       8.701       8.544    
        8.344       8.150       7.976       7.785       7.611       7.385       7.127       6.903       6.652       6.395    
        6.177       5.918       5.618       5.355       5.102       4.879       4.791       4.710       4.643       4.572    
        4.517       4.465       4.360       4.222       4.095       3.883       3.517       3.162       2.838       2.451    
        2.033       1.631       1.360       1.213       1.037      0.8296      0.6135      0.3947      0.1969       0.000    
  33    10.00       9.777       9.609       9.482       9.351       9.205       9.026       8.849       8.674       8.494    
        8.328       8.165       7.993       7.812       7.618       7.442       7.254       7.063       6.858       6.607    
        6.354       6.111       5.859       5.552       5.241       4.987       4.857       4.775       4.691       4.603    
        4.538       4.462       4.347       4.215       4.029       3.735       3.360       3.060       2.748       2.297    
        1.917       1.655       1.439       1.265       1.064      0.8457      0.5810      0.3472      0.1564       0.000    
  34    10.00       9.796       9.659       9.540       9.395       9.216       9.027       8.821       8.627       8.477    
        8.328       8.179       8.024       7.837       7.666       7.497       7.334       7.182       6.986       6.730    
        6.491       6.271       6.022       5.703       5.361       5.078       4.911       4.813       4.719       4.620    
        4.534       4.450       4.336       4.170       3.942       3.580       3.214       2.945       2.574       2.177    
        1.944       1.771       1.563       1.339       1.074      0.7669      0.4694      0.2780      0.1152       0.000    
  35    10.00       9.830       9.706       9.585       9.430       9.229       9.013       8.784       8.600       8.471    
        8.372       8.222       8.050       7.851       7.669       7.549       7.430       7.274       7.071       6.828    
        6.600       6.383       6.152       5.794       5.407       5.136       4.954       4.842       4.733       4.619    
        4.533       4.434       4.299       4.081       3.725       3.348       3.105       2.825       2.446       2.208    
        2.045       1.849       1.641       1.422       1.087      0.6521      0.3605      0.2370      0.1203       0.000    
  36    10.00       9.850       9.743       9.627       9.462       9.223       8.960       8.744       8.612       8.513    
        8.378       8.208       8.050       7.874       7.714       7.595       7.482       7.344       7.183       6.959    
        6.722       6.493       6.209       5.824       5.442       5.167       4.994       4.861       4.726       4.612    
        4.513       4.388       4.171       3.844       3.519       3.261       3.033       2.740       2.439       2.282    
        2.116       1.940       1.730       1.447      0.9912      0.5492      0.3386      0.2167      0.1113       0.000    
  37    10.00       9.866       9.783       9.658       9.438       9.177       8.945       8.777       8.668       8.549    
        8.374       8.192       8.056       7.904       7.756       7.642       7.538       7.409       7.240       7.045    
        6.852       6.602       6.247       5.882       5.519       5.208       4.998       4.832       4.708       4.587    
        4.463       4.277       3.953       3.656       3.429       3.207       2.972       2.741       2.527       2.351    
        2.192       1.994       1.755       1.384      0.9086      0.5296      0.3172      0.2016      0.1011       0.000    
  38    10.00       9.886       9.786       9.649       9.422       9.152       8.956       8.831       8.718       8.578    
        8.393       8.202       8.069       7.929       7.782       7.668       7.577       7.466       7.300       7.131    
        6.953       6.666       6.262       5.867       5.507       5.203       4.973       4.789       4.666       4.553    
        4.385       4.078       3.792       3.606       3.382       3.161       2.992       2.799       2.603       2.434    
        2.246       1.976       1.673       1.271      0.7984      0.5076      0.3570      0.2225      9.9834E-02   0.000    
  39    10.00       9.885       9.771       9.628       9.408       9.165       8.988       8.877       8.738       8.584    
        8.434       8.242       8.089       7.957       7.814       7.693       7.591       7.482       7.349       7.196    
        6.989       6.682       6.264       5.820       5.450       5.166       4.905       4.715       4.620       4.511    
        4.251       3.935       3.757       3.545       3.337       3.180       3.040       2.864       2.674       2.515    
        2.244       1.862       1.505       1.070      0.7124      0.5499      0.4094      0.2666      0.1371       0.000    
  40    10.00       9.876       9.776       9.630       9.428       9.224       9.051       8.905       8.741       8.600    
        8.487       8.300       8.108       7.974       7.842       7.706       7.593       7.507       7.390       7.208    
        6.969       6.615       6.189       5.773       5.395       5.098       4.803       4.654       4.570       4.423    
        4.188       3.953       3.713       3.494       3.347       3.213       3.080       2.915       2.740       2.532    
        2.165       1.748       1.361       1.009      0.7643      0.5969      0.4569      0.3225      0.1584       0.000    
  41    10.00       9.893       9.813       9.671       9.463       9.251       9.087       8.956       8.795       8.626    
        8.493       8.322       8.144       8.018       7.866       7.702       7.605       7.512       7.361       7.161    
        6.915       6.569       6.142       5.736       5.359       4.962       4.690       4.610       4.517       4.408    
        4.223       3.939       3.698       3.526       3.380       3.260       3.114       2.956       2.775       2.451    
        2.020       1.615       1.279       1.019      0.8073      0.6519      0.5023      0.3549      0.1869       0.000    
  42    10.00       9.920       9.831       9.695       9.517       9.314       9.129       8.994       8.849       8.663    
        8.492       8.329       8.178       8.057       7.897       7.724       7.607       7.480       7.315       7.087    
        6.804       6.425       6.053       5.650       5.158       4.807       4.665       4.602       4.523       4.406    
        4.189       3.941       3.716       3.542       3.425       3.297       3.167       2.997       2.708       2.278    
        1.902       1.600       1.308       1.015      0.8177      0.6857      0.5422      0.3695      0.2051       0.000    
  43    10.00       9.937       9.842       9.702       9.526       9.358       9.193       9.042       8.864       8.672    
        8.515       8.351       8.201       8.089       7.939       7.745       7.589       7.444       7.218       6.928    
        6.651       6.286       5.942       5.481       5.018       4.788       4.677       4.604       4.528       4.405    
        4.199       3.973       3.758       3.587       3.475       3.348       3.178       2.935       2.513       2.133    
        1.898       1.630       1.322       1.018      0.8098      0.6877      0.5770      0.3997      0.1873       0.000    
  44    10.00       9.929       9.849       9.704       9.544       9.423       9.257       9.052       8.849       8.690    
        8.533       8.369       8.238       8.120       7.945       7.737       7.558       7.386       7.119       6.827    
        6.496       6.132       5.767       5.306       4.960       4.790       4.695       4.632       4.549       4.395    
        4.184       4.003       3.813       3.656       3.540       3.367       3.141       2.793       2.363       2.112    
        1.897       1.617       1.310       1.033      0.8200      0.6898      0.5775      0.3916      0.1726       0.000    
  45    10.00       9.915       9.818       9.701       9.585       9.430       9.256       9.060       8.859       8.699    
        8.537       8.389       8.273       8.139       7.948       7.725       7.524       7.328       7.039       6.697    
        6.316       5.930       5.537       5.199       4.960       4.817       4.725       4.658       4.554       4.428    
        4.245       4.040       3.870       3.708       3.544       3.360       3.113       2.741       2.369       2.075    
        1.830       1.567       1.280       1.031      0.8460      0.7379      0.5702      0.3394      0.1547       0.000    
  46    10.00       9.897       9.797       9.704       9.572       9.395       9.226       9.066       8.869       8.697    
        8.553       8.416       8.300       8.139       7.935       7.737       7.524       7.267       6.955       6.583    
        6.135       5.752       5.438       5.182       5.001       4.874       4.761       4.670       4.589       4.447    
        4.254       4.076       3.910       3.724       3.561       3.385       3.107       2.678       2.287       2.025    
        1.795       1.542       1.273       1.055      0.9110      0.7718      0.5172      0.2542      0.1105       0.000    
  47    10.00       9.891       9.789       9.660       9.507       9.362       9.217       9.044       8.864       8.711    
        8.579       8.456       8.293       8.118       7.935       7.743       7.509       7.210       6.917       6.466    
        5.980       5.681       5.412       5.211       5.043       4.919       4.806       4.696       4.600       4.455    
        4.252       4.077       3.909       3.733       3.592       3.380       2.993       2.608       2.282       2.003    
        1.801       1.562       1.322       1.111      0.9332      0.7084      0.4257      0.2225      9.2662E-02   0.000    
  48    10.00       9.878       9.757       9.620       9.480       9.351       9.204       9.046       8.880       8.729    
        8.596       8.451       8.272       8.093       7.914       7.723       7.499       7.217       6.853       6.405    
        5.986       5.680       5.417       5.233       5.096       4.944       4.830       4.738       4.620       4.422    
        4.224       4.053       3.898       3.768       3.582       3.302       2.934       2.588       2.278       2.032    
        1.815       1.587       1.371       1.132      0.8657      0.5757      0.3639      0.2159      9.7522E-02   0.000    
  49    10.00       9.868       9.735       9.600       9.487       9.353       9.197       9.042       8.907       8.751    
        8.591       8.409       8.234       8.083       7.879       7.693       7.507       7.192       6.832       6.476    
        6.034       5.692       5.431       5.270       5.110       4.946       4.857       4.769       4.581       4.343    
        4.173       4.036       3.924       3.755       3.539       3.289       2.920       2.574       2.332       2.070    
        1.814       1.605       1.374       1.094      0.7667      0.5134      0.3641      0.2350      0.1206       0.000    
  50    10.00       9.873       9.740       9.603       9.479       9.348       9.209       9.056       8.914       8.775    
        8.578       8.389       8.228       8.026       7.819       7.676       7.499       7.255       6.899       6.546    
        6.095       5.666       5.439       5.275       5.108       4.975       4.868       4.750       4.528       4.301    
        4.161       4.048       3.917       3.742       3.542       3.303       2.930       2.576       2.340       2.104    
        1.861       1.597       1.338       1.037      0.7148      0.5254      0.3917      0.2655      0.1601       0.000    

 HEAD WILL BE SAVED ON UNIT   51 AT END OF TIME STEP  55, STRESS PERIOD    2

 DRAWDOWN WILL BE SAVED ON UNIT   52 AT END OF TIME STEP  55, STRESS PERIOD    2
1
  VOLUMETRIC BUDGET FOR ENTIRE MODEL AT END OF TIME STEP 55 IN STRESS PERIOD   2
  ------------------------------------------------------------------------------

     CUMULATIVE VOLUMES      L**3       RATES FOR THIS TIME STEP      L**3/T
     ------------------                 ------------------------

           IN:                                      IN:
           ---                                      ---
             STORAGE =       27168.1719               STORAGE =         476.5940
       CONSTANT HEAD =       21163.6270         CONSTANT HEAD =         393.3898
               WELLS =           0.0000                 WELLS =           0.0000

            TOTAL IN =       48331.7969              TOTAL IN =         869.9838

          OUT:                                     OUT:
          ----                                     ----
             STORAGE =       1.1143E-02               STORAGE =           0.0000
       CONSTANT HEAD =       20831.7871         CONSTANT HEAD =         369.9844
               WELLS =       27500.0000                 WELLS =         500.0000

           TOTAL OUT =       48331.7969             TOTAL OUT =         869.9844

            IN - OUT =           0.0000              IN - OUT =      -6.1035E-04

 PERCENT DISCREPANCY =           0.00     PERCENT DISCREPANCY =           0.00






          TIME SUMMARY AT END OF TIME STEP  55 IN STRESS PERIOD    2
                    SECONDS     MINUTES      HOURS       DAYS        YEARS
                    -----------------------------------------------------------
   TIME STEP LENGTH  86400.      1440.0      24.000      1.0000     2.73785E-03
 STRESS PERIOD TIME 4.75200E+06  79200.      1320.0      55.000     0.15058    
         TOTAL TIME 4.83840E+06  80640.      1344.0      56.000     0.15332    
1
 
 SOLVING FOR HEAD 

 OUTPUT CONTROL FOR STRESS PERIOD    2   TIME STEP  56
    SAVE HEAD FOR ALL LAYERS
    SAVE DRAWDOWN FOR ALL LAYERS
    SAVE BUDGET
    PRINT HEAD FOR ALL LAYERS
    PRINT BUDGET
 UBDSV1 SAVING "         STORAGE" ON UNIT  53 AT TIME STEP 56, STRESS PERIOD   2
 UBDSV2 SAVING "   CONSTANT HEAD" ON UNIT  53 AT TIME STEP 56, STRESS PERIOD   2
 UBDSV1 SAVING "FLOW RIGHT FACE " ON UNIT  53 AT TIME STEP 56, STRESS PERIOD   2
 UBDSV1 SAVING "FLOW FRONT FACE " ON UNIT  53 AT TIME STEP 56, STRESS PERIOD   2
1
              HEAD IN LAYER   1 AT END OF TIME STEP  56 IN STRESS PERIOD    2
  ---------------------------------------------------------------------------

            1           2           3           4           5           6           7           8           9          10
           11          12          13          14          15          16          17          18          19          20
           21          22          23          24          25          26          27          28          29          30
           31          32          33          34          35          36          37          38          39          40
           41          42          43          44          45          46          47          48          49          50
 ........................................................................................................................
   1    10.00       9.952       9.904       9.848       9.803       9.766       9.716       9.646       9.571       9.501    
        9.348       9.156       9.014       8.855       8.687       8.517       8.358       8.177       7.934       7.692    
        7.527       7.338       7.089       6.837       6.611       6.415       6.135       5.880       5.699       5.510    
        5.348       5.243       5.129       5.001       4.877       4.724       4.559       4.335       4.080       3.799    
        3.438       3.069       2.585       2.057       1.659       1.372       1.158      0.9135      0.5363       0.000    
   2    10.00       9.947       9.896       9.848       9.810       9.774       9.718       9.648       9.578       9.484    
        9.334       9.162       9.003       8.858       8.703       8.527       8.339       8.152       7.925       7.681    
        7.501       7.346       7.081       6.808       6.607       6.385       6.115       5.872       5.664       5.485    
        5.348       5.252       5.156       5.018       4.874       4.722       4.532       4.324       4.076       3.756    
        3.418       3.105       2.597       2.072       1.719       1.464       1.217      0.9435      0.5696       0.000    
   3    10.00       9.938       9.896       9.862       9.826       9.789       9.729       9.645       9.560       9.458    
        9.322       9.170       9.016       8.870       8.685       8.464       8.281       8.119       7.911       7.696    
        7.512       7.290       7.028       6.787       6.569       6.321       6.061       5.821       5.607       5.475    
        5.363       5.270       5.174       5.023       4.871       4.709       4.521       4.288       4.011       3.766    
        3.467       3.040       2.545       2.168       1.868       1.571       1.268      0.9563      0.5399       0.000    
   4    10.00       9.938       9.901       9.871       9.846       9.806       9.737       9.640       9.540       9.438    
        9.308       9.171       9.017       8.834       8.606       8.402       8.270       8.088       7.886       7.719    
        7.466       7.185       6.954       6.740       6.529       6.231       5.944       5.751       5.606       5.493    
        5.392       5.295       5.191       5.015       4.828       4.681       4.482       4.241       4.005       3.791    
        3.451       2.980       2.606       2.289       1.967       1.630       1.264      0.9002      0.4614       0.000    
   5    10.00       9.943       9.908       9.879       9.856       9.815       9.742       9.632       9.520       9.418    
        9.308       9.167       8.969       8.755       8.562       8.400       8.236       8.066       7.877       7.641    
        7.347       7.114       6.923       6.706       6.434       6.125       5.889       5.752       5.634       5.518    
        5.403       5.284       5.165       4.996       4.804       4.626       4.448       4.259       4.044       3.762    
        3.377       3.018       2.698       2.378       2.027       1.634       1.175      0.7579      0.3925       0.000    
   6    10.00       9.953       9.919       9.890       9.859       9.814       9.736       9.616       9.519       9.410    
        9.286       9.111       8.894       8.716       8.538       8.353       8.186       8.034       7.822       7.554    
        7.293       7.071       6.874       6.606       6.311       6.078       5.887       5.759       5.627       5.507    
        5.405       5.276       5.126       4.951       4.765       4.613       4.459       4.287       4.061       3.756    
        3.420       3.073       2.747       2.424       2.042       1.568       1.074      0.7126      0.3669       0.000    
   7    10.00       9.959       9.929       9.899       9.866       9.811       9.707       9.592       9.491       9.356    
        9.229       9.042       8.845       8.662       8.478       8.291       8.128       7.987       7.744       7.458    
        7.222       6.996       6.777       6.517       6.267       6.053       5.886       5.733       5.591       5.498    
        5.394       5.251       5.092       4.916       4.756       4.621       4.478       4.302       4.071       3.794    
        3.460       3.104       2.765       2.409       2.032       1.534       1.027      0.6786      0.3212       0.000    
   8    10.00       9.966       9.939       9.906       9.868       9.780       9.653       9.544       9.417       9.288    
        9.147       8.957       8.789       8.602       8.397       8.213       8.071       7.904       7.674       7.396    
        7.122       6.914       6.732       6.464       6.204       6.014       5.824       5.658       5.562       5.472    
        5.347       5.205       5.071       4.917       4.751       4.611       4.502       4.368       4.143       3.825    
        3.459       3.143       2.826       2.412       1.992       1.436      0.9515      0.6646      0.3076       0.000    
   9    10.00       9.973       9.943       9.905       9.841       9.725       9.590       9.462       9.351       9.218    
        9.052       8.882       8.715       8.535       8.323       8.151       8.018       7.820       7.593       7.309    
        7.071       6.865       6.607       6.332       6.112       5.942       5.753       5.614       5.520       5.417    
        5.303       5.175       5.049       4.915       4.773       4.640       4.531       4.412       4.179       3.835    
        3.499       3.217       2.885       2.485       1.864       1.236      0.9065      0.5621      0.2144       0.000    
  10    10.00       9.973       9.942       9.889       9.790       9.652       9.502       9.403       9.297       9.140    
        8.994       8.826       8.660       8.465       8.269       8.114       7.934       7.730       7.489       7.259    
        7.026       6.709       6.443       6.226       6.039       5.886       5.711       5.570       5.476       5.392    
        5.272       5.134       5.021       4.898       4.773       4.683       4.574       4.436       4.169       3.829    
        3.566       3.319       2.937       2.334       1.616       1.161      0.8226      0.5024      0.2506       0.000    
  11    10.00       9.973       9.932       9.850       9.738       9.584       9.451       9.367       9.242       9.108    
        8.968       8.791       8.592       8.383       8.218       8.050       7.882       7.662       7.428       7.202    
        6.868       6.562       6.350       6.156       5.975       5.805       5.638       5.528       5.451       5.367    
        5.230       5.101       5.008       4.898       4.797       4.697       4.573       4.424       4.173       3.901    
        3.625       3.303       2.887       2.222       1.550       1.091      0.7709      0.5849      0.3231       0.000    
  12    10.00       9.971       9.913       9.808       9.661       9.508       9.402       9.319       9.209       9.088    
        8.935       8.747       8.546       8.361       8.193       8.008       7.814       7.588       7.351       7.042    
        6.712       6.481       6.271       6.073       5.873       5.704       5.588       5.505       5.406       5.297    
        5.176       5.081       4.999       4.913       4.824       4.723       4.591       4.410       4.179       3.933    
        3.637       3.287       2.717       1.970       1.397       1.075      0.8559      0.6207      0.3539       0.000    
  13    10.00       9.961       9.871       9.727       9.574       9.442       9.357       9.284       9.190       9.073    
        8.912       8.716       8.531       8.383       8.188       7.960       7.734       7.489       7.224       6.922    
        6.633       6.382       6.155       5.949       5.757       5.634       5.561       5.444       5.316       5.219    
        5.142       5.068       4.995       4.923       4.838       4.750       4.631       4.424       4.187       3.897    
        3.556       3.113       2.453       1.847       1.431       1.155      0.8998      0.6223      0.3075       0.000    
  14    10.00       9.930       9.800       9.642       9.500       9.396       9.339       9.271       9.181       9.053    
        8.875       8.707       8.556       8.401       8.180       7.911       7.668       7.390       7.095       6.781    
        6.500       6.249       6.025       5.822       5.673       5.588       5.498       5.357       5.248       5.175    
        5.120       5.050       4.989       4.921       4.845       4.775       4.635       4.423       4.173       3.812    
        3.410       2.888       2.379       1.937       1.522       1.200      0.9157      0.6228      0.2775       0.000    
  15    10.00       9.869       9.725       9.583       9.469       9.389       9.326       9.263       9.174       9.054    
        8.896       8.733       8.584       8.365       8.106       7.849       7.577       7.290       6.938       6.603    
        6.342       6.099       5.889       5.734       5.621       5.532       5.421       5.289       5.201       5.148    
        5.086       5.029       4.982       4.919       4.847       4.771       4.623       4.422       4.108       3.717    
        3.302       2.832       2.420       1.964       1.615       1.271      0.9272      0.6170      0.2531       0.000    
  16    10.00       9.847       9.691       9.561       9.463       9.390       9.325       9.267       9.180       9.056    
        8.908       8.751       8.567       8.290       8.007       7.793       7.526       7.140       6.739       6.428    
        6.158       5.956       5.784       5.652       5.528       5.447       5.325       5.218       5.151       5.091    
        5.046       5.011       4.961       4.903       4.839       4.752       4.616       4.373       4.030       3.676    
        3.320       2.869       2.405       2.003       1.674       1.313      0.9247      0.5531      0.2082       0.000    
  17    10.00       9.827       9.670       9.565       9.478       9.404       9.340       9.274       9.181       9.065    
        8.926       8.730       8.477       8.179       7.940       7.738       7.411       6.977       6.569       6.269    
        6.053       5.826       5.635       5.495       5.393       5.291       5.185       5.119       5.064       5.032    
        5.015       4.982       4.931       4.873       4.808       4.714       4.554       4.342       4.066       3.695    
        3.290       2.814       2.386       2.030       1.694       1.323      0.9444      0.5763      0.2437       0.000    
  18    10.00       9.817       9.669       9.579       9.500       9.429       9.366       9.286       9.194       9.069    
        8.903       8.670       8.390       8.136       7.903       7.605       7.226       6.830       6.470       6.174    
        5.908       5.618       5.452       5.336       5.247       5.131       5.063       5.006       4.971       4.975    
        4.968       4.939       4.889       4.825       4.757       4.657       4.505       4.333       4.094       3.753    
        3.227       2.720       2.371       2.033       1.746       1.357      0.9393      0.5652      0.2435       0.000    
  19    10.00       9.825       9.701       9.609       9.525       9.454       9.379       9.305       9.220       9.076    
        8.880       8.631       8.354       8.072       7.762       7.439       7.088       6.706       6.343       6.030    
        5.721       5.467       5.335       5.245       5.119       5.016       4.958       4.907       4.897       4.899    
        4.904       4.886       4.828       4.769       4.713       4.637       4.493       4.306       4.065       3.665    
        3.136       2.706       2.357       2.025       1.704       1.301      0.9025      0.5619      0.2648       0.000    
  20    10.00       9.835       9.729       9.648       9.567       9.483       9.394       9.314       9.229       9.082    
        8.869       8.611       8.288       7.921       7.566       7.302       6.948       6.538       6.219       5.907    
        5.632       5.421       5.261       5.124       4.964       4.892       4.854       4.828       4.832       4.832    
        4.836       4.811       4.763       4.729       4.683       4.605       4.441       4.252       3.977       3.529    
        3.073       2.730       2.327       1.948       1.598       1.201      0.9053      0.5581      0.2475       0.000    
  21    10.00       9.859       9.764       9.682       9.594       9.513       9.415       9.329       9.236       9.071    
        8.841       8.525       8.122       7.693       7.362       7.121       6.788       6.488       6.189       5.852    
        5.589       5.357       5.157       4.896       4.763       4.726       4.670       4.708       4.742       4.739    
        4.736       4.708       4.698       4.681       4.643       4.538       4.376       4.213       3.813       3.346    
        3.007       2.636       2.225       1.872       1.500       1.153      0.8197      0.4917      0.2470       0.000    
  22    10.00       9.889       9.790       9.701       9.615       9.539       9.428       9.315       9.207       9.037    
        8.756       8.359       7.903       7.500       7.215       6.964       6.710       6.493       6.164       5.833    
        5.557       5.225       4.865       4.593       4.493       4.395       4.409       4.513       4.553       4.574    
        4.592       4.591       4.613       4.626       4.591       4.482       4.320       4.018       3.563       3.264    
        2.899       2.499       2.130       1.790       1.473       1.062      0.7113      0.4714      0.2650       0.000    
  23    10.00       9.891       9.795       9.714       9.624       9.523       9.398       9.296       9.201       8.986    
        8.641       8.214       7.798       7.446       7.155       6.942       6.703       6.417       6.103       5.839    
        5.455       4.968       4.582       4.305       3.899       3.899       4.117       4.239       4.328       4.414    
        4.454       4.486       4.523       4.551       4.519       4.410       4.174       3.825       3.454       3.087    
        2.739       2.408       2.052       1.784       1.383      0.9650      0.6919      0.4532      0.2354       0.000    
  24    10.00       9.915       9.806       9.700       9.596       9.480       9.367       9.280       9.173       8.921    
        8.527       8.124       7.779       7.472       7.194       6.915       6.622       6.363       6.113       5.803    
        5.344       4.861       4.403       3.566       2.672       3.193       3.694       3.987       4.151       4.286    
        4.359       4.406       4.452       4.462       4.428       4.287       4.023       3.736       3.329       2.939    
        2.666       2.347       2.011       1.668       1.238      0.8953      0.6654      0.4245      0.1873       0.000    
  25    10.00       9.907       9.781       9.652       9.530       9.425       9.338       9.251       9.119       8.857    
        8.444       8.068       7.803       7.517       7.195       6.905       6.630       6.404       6.172       5.773    
        5.248       4.773       4.039       2.679     -0.1624       2.579       3.370       3.833       4.076       4.217    
        4.302       4.358       4.396       4.394       4.345       4.187       3.907       3.572       3.240       2.910    
        2.599       2.254       1.871       1.509       1.101      0.8219      0.6624      0.4125      0.1529       0.000    
  26    10.00       9.883       9.722       9.577       9.478       9.393       9.308       9.200       9.044       8.720    
        8.336       8.073       7.819       7.533       7.231       6.953       6.695       6.470       6.178       5.755    
        5.292       4.768       4.126       3.391       2.715       3.072       3.543       3.868       4.067       4.197    
        4.277       4.334       4.356       4.340       4.268       4.078       3.765       3.494       3.228       2.874    
        2.551       2.162       1.723       1.334       1.001      0.8040      0.6263      0.3674      0.1564       0.000    
  27    10.00       9.858       9.686       9.550       9.467       9.355       9.243       9.106       8.898       8.590    
        8.318       8.084       7.826       7.548       7.252       7.031       6.853       6.549       6.182       5.750    
        5.357       4.977       4.461       3.977       3.594       3.653       3.834       3.993       4.119       4.211    
        4.293       4.339       4.342       4.304       4.204       3.986       3.736       3.499       3.190       2.858    
        2.524       2.054       1.552       1.187      0.9549      0.7906      0.5953      0.3882      0.1872       0.000    
  28    10.00       9.839       9.713       9.561       9.419       9.283       9.158       8.996       8.788       8.548    
        8.324       8.115       7.859       7.549       7.285       7.108       6.909       6.575       6.149       5.767    
        5.489       5.205       4.799       4.422       4.180       4.099       4.093       4.142       4.222       4.296    
        4.347       4.357       4.343       4.282       4.149       3.951       3.752       3.473       3.151       2.816    
        2.409       1.967       1.468       1.106      0.9442      0.7872      0.6135      0.4054      0.1880       0.000    
  29    10.00       9.844       9.688       9.526       9.357       9.224       9.083       8.904       8.727       8.537    
        8.337       8.130       7.881       7.618       7.393       7.183       6.918       6.547       6.158       5.861    
        5.625       5.375       5.042       4.707       4.509       4.400       4.332       4.330       4.367       4.389    
        4.391       4.381       4.346       4.261       4.110       3.939       3.754       3.494       3.138       2.714    
        2.342       1.871       1.374       1.090      0.9471      0.7926      0.6087      0.3959      0.1969       0.000    
  30    10.00       9.822       9.664       9.470       9.297       9.176       9.025       8.867       8.730       8.559    
        8.354       8.130       7.903       7.694       7.493       7.256       6.919       6.574       6.262       5.980    
        5.777       5.531       5.228       4.937       4.698       4.601       4.537       4.511       4.486       4.462    
        4.434       4.405       4.350       4.238       4.099       3.964       3.779       3.444       3.004       2.571    
        2.193       1.761       1.382       1.119      0.9685      0.7942      0.5979      0.4149      0.2035       0.000    
  31    10.00       9.798       9.615       9.430       9.274       9.148       9.005       8.864       8.729       8.562    
        8.359       8.134       7.938       7.765       7.576       7.309       6.976       6.676       6.431       6.182    
        5.965       5.687       5.389       5.144       4.900       4.743       4.677       4.614       4.567       4.517    
        4.479       4.426       4.348       4.238       4.104       3.952       3.659       3.284       2.917       2.495    
        2.137       1.706       1.338       1.147      0.9861      0.8221      0.6179      0.4153      0.1968       0.000    
  32    10.00       9.783       9.586       9.427       9.296       9.170       9.020       8.861       8.696       8.539    
        8.339       8.144       7.969       7.778       7.603       7.376       7.118       6.893       6.641       6.383    
        6.165       5.906       5.605       5.341       5.088       4.865       4.778       4.696       4.629       4.558    
        4.504       4.452       4.347       4.211       4.084       3.873       3.509       3.155       2.833       2.447    
        2.031       1.630       1.359       1.212       1.036      0.8290      0.6130      0.3944      0.1968       0.000    
  33    10.00       9.776       9.607       9.480       9.349       9.202       9.023       8.846       8.669       8.490    
        8.323       8.159       7.987       7.805       7.610       7.434       7.246       7.054       6.848       6.596    
        6.342       6.099       5.846       5.539       5.227       4.974       4.844       4.762       4.678       4.590    
        4.525       4.449       4.335       4.203       4.018       3.727       3.353       3.054       2.743       2.294    
        1.915       1.653       1.438       1.264       1.063      0.8451      0.5805      0.3469      0.1563       0.000    
  34    10.00       9.796       9.658       9.538       9.393       9.213       9.024       8.817       8.623       8.472    
        8.323       8.173       8.018       7.830       7.659       7.489       7.326       7.173       6.976       6.720    
        6.481       6.260       6.010       5.691       5.349       5.065       4.898       4.801       4.707       4.608    
        4.522       4.439       4.325       4.160       3.933       3.572       3.209       2.940       2.571       2.175    
        1.942       1.769       1.562       1.338       1.073      0.7663      0.4691      0.2778      0.1152       0.000    
  35    10.00       9.829       9.706       9.584       9.428       9.227       9.010       8.780       8.596       8.466    
        8.367       8.217       8.044       7.845       7.662       7.542       7.422       7.266       7.062       6.818    
        6.590       6.372       6.141       5.783       5.395       5.124       4.941       4.829       4.721       4.608    
        4.521       4.423       4.288       4.071       3.718       3.342       3.100       2.821       2.444       2.206    
        2.043       1.847       1.639       1.421       1.086      0.6516      0.3602      0.2368      0.1202       0.000    
  36    10.00       9.850       9.742       9.625       9.460       9.221       8.957       8.740       8.608       8.509    
        8.373       8.202       8.044       7.868       7.707       7.588       7.474       7.336       7.175       6.949    
        6.713       6.483       6.198       5.813       5.430       5.156       4.982       4.850       4.715       4.601    
        4.503       4.377       4.161       3.836       3.513       3.256       3.029       2.736       2.437       2.279    
        2.114       1.938       1.728       1.446      0.9905      0.5488      0.3384      0.2166      0.1113       0.000    
  37    10.00       9.865       9.782       9.657       9.437       9.175       8.942       8.773       8.664       8.544    
        8.369       8.187       8.050       7.898       7.749       7.635       7.530       7.402       7.232       7.037    
        6.843       6.592       6.237       5.872       5.508       5.197       4.987       4.822       4.698       4.577    
        4.453       4.269       3.946       3.650       3.424       3.202       2.968       2.739       2.524       2.349    
        2.190       1.992       1.754       1.383      0.9079      0.5292      0.3170      0.2015      0.1010       0.000    
  38    10.00       9.886       9.785       9.648       9.420       9.150       8.953       8.828       8.715       8.574    
        8.389       8.197       8.063       7.923       7.775       7.661       7.571       7.459       7.293       7.123    
        6.945       6.657       6.253       5.858       5.498       5.194       4.964       4.780       4.657       4.545    
        4.377       4.071       3.786       3.601       3.378       3.158       2.989       2.796       2.600       2.431    
        2.244       1.975       1.672       1.270      0.7979      0.5073      0.3568      0.2223      9.9780E-02   0.000    
  39    10.00       9.884       9.770       9.627       9.407       9.163       8.985       8.874       8.735       8.580    
        8.430       8.237       8.084       7.951       7.809       7.687       7.585       7.476       7.342       7.189    
        6.982       6.674       6.256       5.813       5.442       5.158       4.898       4.708       4.613       4.504    
        4.245       3.929       3.752       3.541       3.333       3.177       3.037       2.861       2.671       2.513    
        2.242       1.860       1.504       1.069      0.7120      0.5496      0.4091      0.2664      0.1371       0.000    
  40    10.00       9.875       9.775       9.629       9.427       9.222       9.049       8.902       8.738       8.596    
        8.483       8.296       8.103       7.968       7.837       7.700       7.587       7.501       7.384       7.201    
        6.963       6.608       6.182       5.766       5.388       5.092       4.798       4.649       4.564       4.418    
        4.184       3.948       3.709       3.491       3.344       3.210       3.077       2.912       2.737       2.530    
        2.163       1.747       1.361       1.009      0.7639      0.5966      0.4567      0.3224      0.1583       0.000    
  41    10.00       9.892       9.812       9.670       9.462       9.249       9.085       8.953       8.792       8.623    
        8.489       8.318       8.140       8.013       7.860       7.697       7.599       7.506       7.355       7.155    
        6.909       6.563       6.137       5.731       5.353       4.957       4.685       4.605       4.513       4.404    
        4.219       3.936       3.695       3.523       3.377       3.257       3.111       2.953       2.772       2.449    
        2.019       1.614       1.278       1.019      0.8069      0.6516      0.5021      0.3547      0.1868       0.000    
  42    10.00       9.919       9.831       9.695       9.516       9.313       9.127       8.992       8.847       8.660    
        8.489       8.326       8.174       8.053       7.893       7.719       7.602       7.475       7.310       7.082    
        6.800       6.421       6.049       5.646       5.154       4.803       4.662       4.598       4.519       4.402    
        4.185       3.938       3.713       3.539       3.422       3.294       3.164       2.994       2.706       2.277    
        1.901       1.599       1.307       1.014      0.8174      0.6854      0.5420      0.3694      0.2050       0.000    
  43    10.00       9.936       9.842       9.702       9.525       9.357       9.192       9.041       8.862       8.669    
        8.512       8.348       8.198       8.086       7.936       7.741       7.584       7.440       7.214       6.924    
        6.647       6.283       5.939       5.478       5.015       4.785       4.673       4.600       4.525       4.402    
        4.196       3.970       3.755       3.585       3.472       3.345       3.176       2.933       2.511       2.131    
        1.897       1.629       1.322       1.018      0.8095      0.6874      0.5768      0.3996      0.1872       0.000    
  44    10.00       9.929       9.849       9.703       9.543       9.422       9.256       9.050       8.848       8.688    
        8.531       8.366       8.235       8.117       7.942       7.734       7.555       7.382       7.116       6.824    
        6.494       6.129       5.764       5.304       4.957       4.787       4.692       4.629       4.546       4.392    
        4.181       4.000       3.811       3.653       3.538       3.364       3.139       2.791       2.362       2.110    
        1.896       1.616       1.310       1.032      0.8198      0.6896      0.5773      0.3915      0.1725       0.000    
  45    10.00       9.915       9.818       9.701       9.584       9.429       9.255       9.059       8.858       8.698    
        8.535       8.387       8.271       8.136       7.945       7.723       7.522       7.326       7.037       6.694    
        6.314       5.928       5.535       5.197       4.958       4.814       4.722       4.655       4.551       4.425    
        4.243       4.037       3.868       3.706       3.542       3.358       3.111       2.740       2.368       2.074    
        1.829       1.566       1.280       1.031      0.8457      0.7377      0.5700      0.3393      0.1547       0.000    
  46    10.00       9.897       9.797       9.704       9.572       9.394       9.225       9.065       8.868       8.696    
        8.552       8.414       8.298       8.137       7.934       7.735       7.522       7.265       6.953       6.581    
        6.133       5.750       5.437       5.180       4.999       4.872       4.759       4.668       4.586       4.445    
        4.252       4.074       3.908       3.722       3.559       3.384       3.105       2.677       2.287       2.025    
        1.795       1.542       1.273       1.055      0.9107      0.7716      0.5171      0.2542      0.1105       0.000    
  47    10.00       9.891       9.789       9.660       9.507       9.361       9.216       9.043       8.863       8.710    
        8.578       8.455       8.291       8.117       7.934       7.741       7.507       7.208       6.916       6.464    
        5.979       5.680       5.410       5.209       5.041       4.917       4.804       4.693       4.598       4.452    
        4.250       4.075       3.907       3.731       3.590       3.378       2.992       2.607       2.281       2.002    
        1.800       1.561       1.322       1.111      0.9330      0.7082      0.4256      0.2225      9.2642E-02   0.000    
  48    10.00       9.878       9.756       9.619       9.480       9.351       9.204       9.046       8.879       8.729    
        8.595       8.450       8.271       8.092       7.913       7.722       7.498       7.216       6.852       6.404    
        5.985       5.678       5.416       5.231       5.094       4.942       4.828       4.735       4.618       4.420    
        4.222       4.051       3.897       3.767       3.581       3.301       2.933       2.587       2.277       2.032    
        1.814       1.587       1.371       1.132      0.8655      0.5756      0.3639      0.2158      9.7506E-02   0.000    
  49    10.00       9.868       9.735       9.600       9.486       9.353       9.197       9.041       8.907       8.750    
        8.590       8.408       8.233       8.082       7.878       7.692       7.506       7.191       6.831       6.475    
        6.032       5.691       5.430       5.268       5.108       4.944       4.855       4.767       4.579       4.341    
        4.171       4.034       3.922       3.753       3.537       3.288       2.919       2.574       2.331       2.070    
        1.814       1.605       1.374       1.093      0.7666      0.5133      0.3640      0.2349      0.1205       0.000    
  50    10.00       9.872       9.740       9.603       9.479       9.347       9.208       9.055       8.914       8.774    
        8.577       8.388       8.227       8.025       7.818       7.675       7.498       7.254       6.898       6.545    
        6.094       5.664       5.437       5.273       5.106       4.973       4.866       4.748       4.526       4.300    
        4.159       4.046       3.916       3.740       3.541       3.302       2.929       2.575       2.339       2.104    
        1.860       1.596       1.337       1.037      0.7147      0.5253      0.3917      0.2655      0.1601       0.000    

 HEAD WILL BE SAVED ON UNIT   51 AT END OF TIME STEP  56, STRESS PERIOD    2

 DRAWDOWN WILL BE SAVED ON UNIT   52 AT END OF TIME STEP  56, STRESS PERIOD    2
1
  VOLUMETRIC BUDGET FOR ENTIRE MODEL AT END OF TIME STEP 56 IN STRESS PERIOD   2
  ------------------------------------------------------------------------------

     CUMULATIVE VOLUMES      L**3       RATES FOR THIS TIME STEP      L**3/T
     ------------------                 ------------------------

           IN:                                      IN:
           ---                                      ---
             STORAGE =       27643.6562               STORAGE =         475.4837
       CONSTANT HEAD =       21557.9434         CONSTANT HEAD =         394.3163
               WELLS =           0.0000                 WELLS =           0.0000

            TOTAL IN =       49201.6016              TOTAL IN =         869.8000

          OUT:                                     OUT:
          ----                                     ----
             STORAGE =       1.1143E-02               STORAGE =           0.0000
       CONSTANT HEAD =       21201.5859         CONSTANT HEAD =         369.7996
               WELLS =       28000.0000                 WELLS =         500.0000

           TOTAL OUT =       49201.5977             TOTAL OUT =         869.7996

            IN - OUT =       3.9063E-03              IN - OUT =       4.8828E-04

 PERCENT DISCREPANCY =           0.00     PERCENT DISCREPANCY =           0.00






          TIME SUMMARY AT END OF TIME STEP  56 IN STRESS PERIOD    2
                    SECONDS     MINUTES      HOURS       DAYS        YEARS
                    -----------------------------------------------------------
   TIME STEP LENGTH  86400.      1440.0      24.000      1.0000     2.73785E-03
 STRESS PERIOD TIME 4.83840E+06  80640.      1344.0      56.000     0.15332    
         TOTAL TIME 4.92480E+06  82080.      1368.0      57.000     0.15606    
1
 
 SOLVING FOR HEAD 

 OUTPUT CONTROL FOR STRESS PERIOD    2   TIME STEP  57
    SAVE HEAD FOR ALL LAYERS
    SAVE DRAWDOWN FOR ALL LAYERS
    SAVE BUDGET
    PRINT HEAD FOR ALL LAYERS
    PRINT BUDGET
 UBDSV1 SAVING "         STORAGE" ON UNIT  53 AT TIME STEP 57, STRESS PERIOD   2
 UBDSV2 SAVING "   CONSTANT HEAD" ON UNIT  53 AT TIME STEP 57, STRESS PERIOD   2
 UBDSV1 SAVING "FLOW RIGHT FACE " ON UNIT  53 AT TIME STEP 57, STRESS PERIOD   2
 UBDSV1 SAVING "FLOW FRONT FACE " ON UNIT  53 AT TIME STEP 57, STRESS PERIOD   2
1
              HEAD IN LAYER   1 AT END OF TIME STEP  57 IN STRESS PERIOD    2
  ---------------------------------------------------------------------------

            1           2           3           4           5           6           7           8           9          10
           11          12          13          14          15          16          17          18          19          20
           21          22          23          24          25          26          27          28          29          30
           31          32          33          34          35          36          37          38          39          40
           41          42          43          44          45          46          47          48          49          50
 ........................................................................................................................
   1    10.00       9.952       9.904       9.848       9.803       9.766       9.715       9.646       9.570       9.501    
        9.347       9.155       9.012       8.854       8.685       8.515       8.356       8.175       7.931       7.689    
        7.524       7.335       7.086       6.833       6.607       6.411       6.131       5.875       5.695       5.506    
        5.343       5.238       5.125       4.996       4.873       4.720       4.555       4.332       4.077       3.797    
        3.435       3.068       2.584       2.056       1.658       1.372       1.158      0.9131      0.5361       0.000    
   2    10.00       9.947       9.896       9.848       9.810       9.774       9.718       9.647       9.578       9.484    
        9.333       9.161       9.001       8.857       8.701       8.525       8.337       8.150       7.923       7.679    
        7.498       7.343       7.077       6.804       6.603       6.381       6.110       5.867       5.659       5.481    
        5.344       5.247       5.152       5.014       4.870       4.718       4.528       4.321       4.073       3.754    
        3.416       3.103       2.596       2.071       1.719       1.463       1.217      0.9431      0.5694       0.000    
   3    10.00       9.938       9.895       9.862       9.826       9.788       9.728       9.644       9.560       9.458    
        9.321       9.168       9.014       8.869       8.683       8.462       8.279       8.117       7.908       7.693    
        7.509       7.287       7.025       6.783       6.565       6.316       6.056       5.816       5.602       5.470    
        5.358       5.266       5.170       5.019       4.867       4.705       4.517       4.285       4.008       3.764    
        3.465       3.038       2.543       2.167       1.867       1.571       1.267      0.9559      0.5397       0.000    
   4    10.00       9.938       9.900       9.870       9.846       9.805       9.737       9.639       9.539       9.437    
        9.307       9.170       9.016       8.833       8.604       8.399       8.268       8.085       7.884       7.716    
        7.463       7.181       6.951       6.736       6.525       6.226       5.939       5.746       5.601       5.488    
        5.388       5.291       5.186       5.011       4.823       4.677       4.478       4.238       4.002       3.788    
        3.448       2.978       2.604       2.288       1.966       1.629       1.264      0.8998      0.4612       0.000    
   5    10.00       9.943       9.908       9.879       9.856       9.815       9.742       9.631       9.520       9.418    
        9.307       9.165       8.968       8.753       8.560       8.398       8.233       8.063       7.874       7.637    
        7.343       7.110       6.919       6.701       6.429       6.120       5.884       5.747       5.628       5.513    
        5.398       5.279       5.160       4.991       4.800       4.622       4.444       4.255       4.041       3.759    
        3.374       3.016       2.696       2.377       2.026       1.634       1.175      0.7576      0.3923       0.000    
   6    10.00       9.953       9.919       9.890       9.859       9.813       9.736       9.616       9.518       9.409    
        9.285       9.110       8.893       8.714       8.536       8.351       8.183       8.031       7.819       7.550    
        7.288       7.066       6.870       6.601       6.306       6.072       5.881       5.753       5.621       5.501    
        5.400       5.270       5.121       4.946       4.760       4.608       4.454       4.283       4.057       3.753    
        3.417       3.071       2.745       2.422       2.041       1.567       1.073      0.7123      0.3667       0.000    
   7    10.00       9.959       9.929       9.899       9.865       9.811       9.706       9.591       9.490       9.355    
        9.227       9.040       8.843       8.660       8.476       8.288       8.124       7.984       7.741       7.454    
        7.217       6.991       6.772       6.511       6.261       6.047       5.880       5.726       5.585       5.492    
        5.388       5.244       5.086       4.911       4.751       4.616       4.473       4.297       4.067       3.791    
        3.457       3.101       2.763       2.407       2.031       1.533       1.027      0.6782      0.3210       0.000    
   8    10.00       9.966       9.939       9.906       9.868       9.779       9.652       9.543       9.416       9.287    
        9.146       8.955       8.787       8.599       8.394       8.209       8.068       7.900       7.669       7.391    
        7.116       6.909       6.726       6.458       6.197       6.007       5.817       5.651       5.555       5.465    
        5.340       5.198       5.064       4.911       4.745       4.605       4.496       4.363       4.138       3.821    
        3.456       3.140       2.824       2.410       1.991       1.435      0.9509      0.6643      0.3075       0.000    
   9    10.00       9.973       9.943       9.905       9.840       9.724       9.589       9.461       9.350       9.217    
        9.050       8.880       8.712       8.532       8.320       8.147       8.014       7.816       7.588       7.304    
        7.065       6.858       6.600       6.325       6.104       5.935       5.745       5.606       5.512       5.409    
        5.296       5.168       5.042       4.908       4.766       4.634       4.525       4.406       4.174       3.831    
        3.495       3.214       2.882       2.483       1.863       1.236      0.9059      0.5617      0.2143       0.000    
  10    10.00       9.973       9.942       9.889       9.789       9.651       9.501       9.401       9.296       9.138    
        8.992       8.824       8.657       8.462       8.265       8.110       7.930       7.725       7.484       7.253    
        7.019       6.702       6.435       6.218       6.031       5.878       5.703       5.562       5.468       5.384    
        5.264       5.126       5.014       4.890       4.765       4.676       4.567       4.430       4.164       3.824    
        3.562       3.315       2.934       2.333       1.614       1.160      0.8221      0.5021      0.2505       0.000    
  11    10.00       9.973       9.932       9.850       9.737       9.583       9.449       9.366       9.240       9.106    
        8.966       8.788       8.588       8.379       8.214       8.046       7.877       7.656       7.422       7.195    
        6.860       6.554       6.342       6.147       5.966       5.796       5.629       5.519       5.442       5.358    
        5.221       5.093       5.000       4.890       4.789       4.689       4.567       4.418       4.168       3.896    
        3.620       3.299       2.884       2.221       1.549       1.090      0.7704      0.5845      0.3229       0.000    
  12    10.00       9.971       9.913       9.807       9.660       9.507       9.401       9.317       9.207       9.086    
        8.932       8.744       8.543       8.357       8.188       8.003       7.809       7.582       7.344       7.035    
        6.704       6.472       6.262       6.063       5.863       5.694       5.578       5.496       5.396       5.288    
        5.166       5.072       4.990       4.904       4.816       4.716       4.584       4.404       4.173       3.928    
        3.633       3.283       2.715       1.968       1.396       1.074      0.8553      0.6203      0.3536       0.000    
  13    10.00       9.961       9.871       9.726       9.573       9.441       9.355       9.282       9.188       9.071    
        8.909       8.712       8.527       8.379       8.183       7.955       7.728       7.482       7.216       6.914    
        6.624       6.373       6.145       5.939       5.747       5.624       5.550       5.434       5.306       5.209    
        5.132       5.058       4.985       4.914       4.829       4.741       4.623       4.417       4.181       3.892    
        3.552       3.110       2.450       1.845       1.430       1.155      0.8992      0.6218      0.3073       0.000    
  14    10.00       9.930       9.799       9.641       9.498       9.394       9.337       9.269       9.179       9.051    
        8.871       8.704       8.552       8.397       8.175       7.906       7.661       7.383       7.087       6.772    
        6.491       6.239       6.015       5.811       5.662       5.577       5.487       5.346       5.238       5.165    
        5.110       5.040       4.979       4.912       4.836       4.766       4.627       4.416       4.167       3.806    
        3.406       2.885       2.377       1.935       1.521       1.199      0.9151      0.6224      0.2773       0.000    
  15    10.00       9.869       9.724       9.582       9.468       9.388       9.324       9.260       9.171       9.051    
        8.893       8.729       8.580       8.360       8.101       7.842       7.570       7.282       6.929       6.593    
        6.332       6.089       5.877       5.722       5.610       5.520       5.410       5.278       5.190       5.138    
        5.075       5.019       4.972       4.909       4.838       4.762       4.615       4.415       4.101       3.712    
        3.297       2.829       2.418       1.962       1.614       1.270      0.9266      0.6166      0.2530       0.000    
  16    10.00       9.847       9.690       9.560       9.461       9.388       9.323       9.264       9.178       9.053    
        8.904       8.748       8.563       8.285       8.000       7.786       7.518       7.131       6.729       6.417    
        6.147       5.944       5.772       5.640       5.516       5.435       5.314       5.207       5.139       5.080    
        5.035       5.000       4.950       4.892       4.829       4.742       4.607       4.365       4.023       3.670    
        3.316       2.865       2.403       2.002       1.673       1.312      0.9241      0.5527      0.2081       0.000    
  17    10.00       9.827       9.669       9.564       9.476       9.402       9.338       9.272       9.178       9.062    
        8.923       8.726       8.472       8.172       7.933       7.730       7.402       6.967       6.559       6.258    
        6.041       5.814       5.623       5.483       5.381       5.279       5.173       5.106       5.052       5.020    
        5.004       4.971       4.920       4.863       4.797       4.704       4.545       4.334       4.058       3.689    
        3.285       2.810       2.383       2.029       1.692       1.322      0.9438      0.5760      0.2435       0.000    
  18    10.00       9.816       9.668       9.578       9.499       9.427       9.364       9.283       9.191       9.066    
        8.899       8.666       8.384       8.130       7.895       7.597       7.216       6.819       6.459       6.162    
        5.896       5.605       5.440       5.323       5.234       5.118       5.050       4.993       4.958       4.963    
        4.956       4.928       4.878       4.814       4.746       4.647       4.495       4.325       4.086       3.747    
        3.223       2.717       2.368       2.031       1.745       1.356      0.9387      0.5649      0.2434       0.000    
  19    10.00       9.825       9.700       9.608       9.524       9.452       9.377       9.302       9.217       9.073    
        8.876       8.627       8.348       8.065       7.754       7.430       7.078       6.694       6.331       6.017    
        5.708       5.454       5.322       5.231       5.105       5.003       4.945       4.894       4.884       4.887    
        4.891       4.874       4.816       4.758       4.702       4.626       4.484       4.297       4.057       3.659    
        3.132       2.702       2.355       2.023       1.702       1.300      0.9020      0.5616      0.2647       0.000    
  20    10.00       9.834       9.729       9.647       9.566       9.481       9.392       9.312       9.226       9.079    
        8.865       8.606       8.282       7.913       7.557       7.292       6.937       6.526       6.207       5.895    
        5.619       5.408       5.248       5.110       4.950       4.878       4.840       4.815       4.818       4.819    
        4.823       4.798       4.751       4.717       4.671       4.594       4.431       4.243       3.969       3.523    
        3.069       2.726       2.325       1.947       1.597       1.201      0.9048      0.5578      0.2474       0.000    
  21    10.00       9.858       9.763       9.681       9.592       9.511       9.413       9.326       9.233       9.068    
        8.837       8.520       8.115       7.684       7.352       7.110       6.777       6.476       6.176       5.839    
        5.576       5.343       5.143       4.882       4.749       4.712       4.656       4.694       4.728       4.726    
        4.722       4.695       4.686       4.668       4.632       4.527       4.366       4.204       3.806       3.341    
        3.003       2.633       2.222       1.870       1.499       1.152      0.8192      0.4914      0.2469       0.000    
  22    10.00       9.889       9.789       9.700       9.614       9.537       9.426       9.313       9.204       9.034    
        8.751       8.352       7.895       7.490       7.205       6.953       6.698       6.481       6.151       5.820    
        5.544       5.212       4.851       4.579       4.479       4.381       4.394       4.498       4.539       4.560    
        4.578       4.577       4.599       4.613       4.579       4.470       4.310       4.009       3.556       3.259    
        2.895       2.496       2.128       1.789       1.472       1.061      0.7110      0.4711      0.2649       0.000    
  23    10.00       9.890       9.794       9.713       9.623       9.521       9.396       9.293       9.198       8.982    
        8.636       8.207       7.789       7.437       7.144       6.931       6.691       6.405       6.090       5.825    
        5.441       4.954       4.568       4.290       3.884       3.885       4.102       4.224       4.313       4.399    
        4.439       4.471       4.508       4.537       4.506       4.398       4.164       3.817       3.448       3.083    
        2.735       2.405       2.050       1.782       1.382      0.9644      0.6915      0.4530      0.2353       0.000    
  24    10.00       9.914       9.806       9.699       9.595       9.478       9.365       9.277       9.170       8.916    
        8.522       8.117       7.771       7.462       7.183       6.903       6.610       6.350       6.100       5.790    
        5.330       4.847       4.388       3.550       2.657       3.178       3.679       3.972       4.135       4.271    
        4.344       4.391       4.437       4.448       4.414       4.274       4.013       3.728       3.323       2.934    
        2.662       2.345       2.009       1.667       1.237      0.8948      0.6651      0.4243      0.1872       0.000    
  25    10.00       9.907       9.781       9.651       9.528       9.423       9.336       9.248       9.115       8.852    
        8.438       8.060       7.795       7.507       7.184       6.894       6.619       6.392       6.159       5.760    
        5.234       4.758       4.024       2.663     -0.1790       2.563       3.354       3.817       4.060       4.202    
        4.286       4.343       4.381       4.379       4.331       4.175       3.897       3.564       3.234       2.905    
        2.595       2.252       1.870       1.508       1.100      0.8214      0.6621      0.4123      0.1528       0.000    
  26    10.00       9.883       9.721       9.575       9.477       9.391       9.305       9.197       9.041       8.715    
        8.330       8.065       7.810       7.524       7.221       6.942       6.683       6.458       6.166       5.741    
        5.278       4.753       4.111       3.375       2.699       3.056       3.528       3.853       4.052       4.181    
        4.261       4.319       4.341       4.326       4.254       4.066       3.755       3.486       3.222       2.869    
        2.547       2.159       1.721       1.332       1.000      0.8035      0.6259      0.3672      0.1563       0.000    
  27    10.00       9.857       9.685       9.548       9.465       9.353       9.241       9.103       8.894       8.585    
        8.311       8.077       7.818       7.538       7.242       7.020       6.842       6.538       6.169       5.736    
        5.343       4.963       4.446       3.962       3.579       3.638       3.818       3.978       4.104       4.196    
        4.278       4.324       4.328       4.290       4.191       3.974       3.727       3.491       3.184       2.853    
        2.520       2.051       1.550       1.186      0.9542      0.7900      0.5949      0.3880      0.1871       0.000    
  28    10.00       9.838       9.712       9.559       9.417       9.280       9.155       8.993       8.783       8.543    
        8.318       8.108       7.852       7.540       7.276       7.097       6.898       6.563       6.136       5.754    
        5.475       5.191       4.785       4.408       4.164       4.084       4.078       4.127       4.207       4.281    
        4.332       4.342       4.328       4.268       4.136       3.940       3.742       3.464       3.145       2.811    
        2.405       1.964       1.467       1.105      0.9435      0.7866      0.6131      0.4051      0.1878       0.000    
  29    10.00       9.844       9.687       9.525       9.354       9.222       9.080       8.900       8.723       8.532    
        8.331       8.123       7.873       7.610       7.383       7.173       6.907       6.535       6.146       5.848    
        5.611       5.361       5.028       4.692       4.494       4.385       4.317       4.315       4.352       4.375    
        4.376       4.367       4.332       4.248       4.098       3.928       3.745       3.486       3.132       2.709    
        2.338       1.869       1.373       1.089      0.9463      0.7920      0.6083      0.3956      0.1968       0.000    
  30    10.00       9.821       9.662       9.468       9.295       9.173       9.022       8.863       8.726       8.554    
        8.348       8.124       7.896       7.685       7.484       7.247       6.909       6.563       6.250       5.968    
        5.764       5.517       5.214       4.923       4.683       4.586       4.522       4.496       4.471       4.448    
        4.420       4.391       4.336       4.225       4.087       3.953       3.769       3.436       2.998       2.566    
        2.189       1.759       1.381       1.118      0.9677      0.7936      0.5974      0.4146      0.2034       0.000    
  31    10.00       9.797       9.614       9.428       9.272       9.145       9.001       8.861       8.725       8.558    
        8.354       8.128       7.931       7.757       7.568       7.300       6.966       6.665       6.420       6.169    
        5.952       5.674       5.375       5.130       4.886       4.728       4.663       4.600       4.553       4.503    
        4.465       4.413       4.335       4.226       4.092       3.942       3.650       3.277       2.912       2.491    
        2.134       1.705       1.337       1.146      0.9854      0.8215      0.6174      0.4150      0.1967       0.000    
  32    10.00       9.782       9.585       9.425       9.293       9.167       9.017       8.857       8.692       8.534    
        8.333       8.138       7.962       7.771       7.595       7.368       7.109       6.883       6.631       6.372    
        6.153       5.893       5.592       5.328       5.075       4.851       4.764       4.682       4.615       4.545    
        4.491       4.439       4.334       4.199       4.073       3.863       3.501       3.149       2.828       2.444    
        2.028       1.628       1.358       1.211       1.035      0.8284      0.6126      0.3941      0.1966       0.000    
  33    10.00       9.775       9.606       9.478       9.347       9.200       9.020       8.842       8.665       8.485    
        8.318       8.153       7.980       7.797       7.602       7.426       7.237       7.045       6.838       6.585    
        6.331       6.087       5.834       5.526       5.214       4.960       4.831       4.749       4.665       4.577    
        4.513       4.437       4.323       4.192       4.008       3.718       3.346       3.049       2.739       2.291    
        1.913       1.652       1.437       1.263       1.062      0.8444      0.5801      0.3467      0.1562       0.000    
  34    10.00       9.795       9.657       9.537       9.391       9.211       9.021       8.813       8.618       8.467    
        8.318       8.168       8.012       7.823       7.651       7.481       7.317       7.164       6.967       6.710    
        6.470       6.249       5.998       5.679       5.336       5.052       4.885       4.788       4.694       4.595    
        4.510       4.427       4.314       4.149       3.923       3.565       3.203       2.936       2.567       2.172    
        1.940       1.767       1.560       1.336       1.072      0.7657      0.4687      0.2776      0.1151       0.000    
  35    10.00       9.829       9.705       9.583       9.427       9.224       9.007       8.776       8.591       8.462    
        8.362       8.211       8.038       7.838       7.655       7.534       7.414       7.257       7.053       6.809    
        6.579       6.361       6.130       5.771       5.383       5.112       4.929       4.817       4.709       4.596    
        4.510       4.412       4.278       4.062       3.710       3.336       3.095       2.817       2.441       2.204    
        2.041       1.845       1.638       1.419       1.085      0.6511      0.3600      0.2367      0.1201       0.000    
  36    10.00       9.849       9.741       9.624       9.459       9.219       8.954       8.737       8.604       8.504    
        8.368       8.197       8.038       7.862       7.701       7.581       7.467       7.328       7.166       6.941    
        6.703       6.473       6.188       5.802       5.419       5.144       4.970       4.839       4.704       4.590    
        4.492       4.367       4.152       3.829       3.507       3.251       3.025       2.733       2.434       2.277    
        2.112       1.936       1.727       1.445      0.9897      0.5484      0.3381      0.2164      0.1112       0.000    
  37    10.00       9.865       9.782       9.656       9.435       9.173       8.939       8.770       8.660       8.540    
        8.365       8.182       8.045       7.892       7.743       7.628       7.523       7.395       7.225       7.029    
        6.835       6.583       6.227       5.861       5.498       5.187       4.977       4.812       4.688       4.567    
        4.444       4.260       3.938       3.645       3.419       3.198       2.965       2.736       2.522       2.347    
        2.188       1.990       1.752       1.382      0.9073      0.5289      0.3168      0.2013      0.1010       0.000    
  38    10.00       9.885       9.785       9.647       9.419       9.148       8.950       8.825       8.711       8.570    
        8.384       8.192       8.058       7.918       7.769       7.655       7.564       7.452       7.285       7.116    
        6.937       6.649       6.244       5.849       5.489       5.184       4.955       4.772       4.649       4.536    
        4.368       4.065       3.781       3.596       3.373       3.154       2.986       2.793       2.598       2.429    
        2.242       1.973       1.671       1.269      0.7974      0.5070      0.3566      0.2222      9.9723E-02   0.000    
  39    10.00       9.884       9.770       9.626       9.405       9.160       8.982       8.871       8.732       8.576    
        8.426       8.232       8.078       7.946       7.803       7.681       7.579       7.469       7.336       7.182    
        6.974       6.666       6.248       5.805       5.434       5.151       4.891       4.702       4.606       4.498    
        4.239       3.924       3.747       3.537       3.330       3.174       3.034       2.858       2.669       2.511    
        2.240       1.859       1.503       1.068      0.7116      0.5493      0.4089      0.2663      0.1370       0.000    
  40    10.00       9.875       9.775       9.628       9.425       9.220       9.047       8.900       8.735       8.593    
        8.479       8.292       8.098       7.963       7.831       7.694       7.581       7.494       7.378       7.195    
        6.956       6.602       6.176       5.760       5.381       5.085       4.792       4.644       4.559       4.413    
        4.179       3.944       3.705       3.487       3.341       3.207       3.074       2.909       2.735       2.527    
        2.161       1.745       1.360       1.008      0.7635      0.5963      0.4565      0.3222      0.1582       0.000    
  41    10.00       9.892       9.812       9.669       9.461       9.248       9.082       8.951       8.789       8.620    
        8.485       8.314       8.136       8.009       7.855       7.691       7.594       7.501       7.350       7.150    
        6.904       6.558       6.131       5.725       5.348       4.952       4.681       4.601       4.508       4.400    
        4.214       3.932       3.691       3.519       3.374       3.254       3.108       2.951       2.770       2.447    
        2.018       1.613       1.277       1.018      0.8064      0.6513      0.5018      0.3545      0.1867       0.000    
  42    10.00       9.919       9.831       9.694       9.515       9.311       9.125       8.989       8.844       8.657    
        8.486       8.322       8.171       8.049       7.888       7.714       7.597       7.470       7.305       7.078    
        6.795       6.416       6.044       5.642       5.150       4.799       4.658       4.594       4.515       4.398    
        4.181       3.934       3.710       3.536       3.419       3.291       3.162       2.992       2.704       2.275    
        1.900       1.598       1.306       1.014      0.8170      0.6851      0.5417      0.3692      0.2049       0.000    
  43    10.00       9.936       9.842       9.701       9.525       9.356       9.190       9.039       8.860       8.667    
        8.509       8.345       8.195       8.082       7.932       7.737       7.580       7.436       7.210       6.920    
        6.644       6.279       5.935       5.474       5.012       4.781       4.670       4.597       4.522       4.399    
        4.193       3.967       3.752       3.582       3.469       3.343       3.173       2.931       2.510       2.130    
        1.896       1.628       1.321       1.017      0.8092      0.6871      0.5766      0.3994      0.1872       0.000    
  44    10.00       9.929       9.849       9.703       9.542       9.421       9.254       9.049       8.846       8.686    
        8.529       8.364       8.232       8.114       7.939       7.731       7.552       7.379       7.112       6.821    
        6.491       6.127       5.761       5.301       4.954       4.784       4.689       4.625       4.543       4.389    
        4.178       3.998       3.808       3.650       3.535       3.362       3.137       2.789       2.361       2.109    
        1.895       1.615       1.309       1.032      0.8194      0.6893      0.5771      0.3913      0.1724       0.000    
  45    10.00       9.915       9.818       9.701       9.584       9.428       9.254       9.058       8.857       8.696    
        8.533       8.385       8.269       8.134       7.943       7.720       7.519       7.323       7.035       6.692    
        6.312       5.926       5.533       5.194       4.955       4.811       4.720       4.652       4.549       4.422    
        4.240       4.035       3.865       3.703       3.539       3.356       3.109       2.738       2.367       2.073    
        1.829       1.565       1.279       1.031      0.8455      0.7374      0.5698      0.3392      0.1546       0.000    
  46    10.00       9.897       9.797       9.703       9.571       9.394       9.224       9.064       8.867       8.695    
        8.551       8.413       8.296       8.135       7.932       7.733       7.520       7.263       6.951       6.579    
        6.132       5.748       5.435       5.178       4.996       4.869       4.756       4.665       4.584       4.442    
        4.250       4.072       3.906       3.720       3.557       3.382       3.104       2.676       2.286       2.024    
        1.794       1.541       1.272       1.054      0.9104      0.7714      0.5169      0.2541      0.1105       0.000    
  47    10.00       9.891       9.789       9.660       9.507       9.361       9.216       9.043       8.862       8.709    
        8.577       8.454       8.290       8.115       7.933       7.740       7.506       7.207       6.914       6.463    
        5.977       5.678       5.408       5.207       5.038       4.914       4.802       4.691       4.596       4.450    
        4.248       4.073       3.905       3.730       3.588       3.377       2.991       2.606       2.280       2.001    
        1.800       1.561       1.321       1.111      0.9327      0.7080      0.4255      0.2224      9.2621E-02   0.000    
  48    10.00       9.878       9.756       9.619       9.480       9.350       9.203       9.045       8.878       8.728    
        8.594       8.449       8.270       8.090       7.912       7.720       7.497       7.215       6.851       6.403    
        5.983       5.677       5.414       5.229       5.092       4.940       4.826       4.733       4.616       4.418    
        4.220       4.049       3.895       3.765       3.579       3.300       2.932       2.586       2.277       2.031    
        1.814       1.586       1.370       1.132      0.8654      0.5755      0.3638      0.2158      9.7488E-02   0.000    
  49    10.00       9.867       9.735       9.600       9.486       9.352       9.196       9.041       8.906       8.750    
        8.589       8.407       8.232       8.081       7.877       7.691       7.505       7.190       6.830       6.473    
        6.031       5.689       5.428       5.266       5.106       4.942       4.853       4.765       4.577       4.339    
        4.169       4.032       3.921       3.752       3.536       3.287       2.918       2.573       2.330       2.069    
        1.813       1.604       1.374       1.093      0.7664      0.5133      0.3640      0.2349      0.1205       0.000    
  50    10.00       9.872       9.739       9.602       9.478       9.347       9.208       9.055       8.913       8.774    
        8.576       8.387       8.226       8.024       7.817       7.674       7.497       7.253       6.897       6.544    
        6.093       5.663       5.436       5.272       5.104       4.971       4.864       4.746       4.524       4.298    
        4.158       4.045       3.914       3.739       3.539       3.301       2.929       2.574       2.338       2.103    
        1.860       1.596       1.337       1.037      0.7145      0.5252      0.3916      0.2654      0.1601       0.000    

 HEAD WILL BE SAVED ON UNIT   51 AT END OF TIME STEP  57, STRESS PERIOD    2

 DRAWDOWN WILL BE SAVED ON UNIT   52 AT END OF TIME STEP  57, STRESS PERIOD    2
1
  VOLUMETRIC BUDGET FOR ENTIRE MODEL AT END OF TIME STEP 57 IN STRESS PERIOD   2
  ------------------------------------------------------------------------------

     CUMULATIVE VOLUMES      L**3       RATES FOR THIS TIME STEP      L**3/T
     ------------------                 ------------------------

           IN:                                      IN:
           ---                                      ---
             STORAGE =       28118.0098               STORAGE =         474.3542
       CONSTANT HEAD =       21953.1973         CONSTANT HEAD =         395.2532
               WELLS =           0.0000                 WELLS =           0.0000

            TOTAL IN =       50071.2070              TOTAL IN =         869.6074

          OUT:                                     OUT:
          ----                                     ----
             STORAGE =       1.1143E-02               STORAGE =           0.0000
       CONSTANT HEAD =       21571.1934         CONSTANT HEAD =         369.6071
               WELLS =       28500.0000                 WELLS =         500.0000

           TOTAL OUT =       50071.2031             TOTAL OUT =         869.6072

            IN - OUT =       3.9063E-03              IN - OUT =       2.4414E-04

 PERCENT DISCREPANCY =           0.00     PERCENT DISCREPANCY =           0.00






          TIME SUMMARY AT END OF TIME STEP  57 IN STRESS PERIOD    2
                    SECONDS     MINUTES      HOURS       DAYS        YEARS
                    -----------------------------------------------------------
   TIME STEP LENGTH  86400.      1440.0      24.000      1.0000     2.73785E-03
 STRESS PERIOD TIME 4.92480E+06  82080.      1368.0      57.000     0.15606    
         TOTAL TIME 5.01120E+06  83520.      1392.0      58.000     0.15880    
1
 
 SOLVING FOR HEAD 

 OUTPUT CONTROL FOR STRESS PERIOD    2   TIME STEP  58
    SAVE HEAD FOR ALL LAYERS
    SAVE DRAWDOWN FOR ALL LAYERS
    SAVE BUDGET
    PRINT HEAD FOR ALL LAYERS
    PRINT BUDGET
 UBDSV1 SAVING "         STORAGE" ON UNIT  53 AT TIME STEP 58, STRESS PERIOD   2
 UBDSV2 SAVING "   CONSTANT HEAD" ON UNIT  53 AT TIME STEP 58, STRESS PERIOD   2
 UBDSV1 SAVING "FLOW RIGHT FACE " ON UNIT  53 AT TIME STEP 58, STRESS PERIOD   2
 UBDSV1 SAVING "FLOW FRONT FACE " ON UNIT  53 AT TIME STEP 58, STRESS PERIOD   2
1
              HEAD IN LAYER   1 AT END OF TIME STEP  58 IN STRESS PERIOD    2
  ---------------------------------------------------------------------------

            1           2           3           4           5           6           7           8           9          10
           11          12          13          14          15          16          17          18          19          20
           21          22          23          24          25          26          27          28          29          30
           31          32          33          34          35          36          37          38          39          40
           41          42          43          44          45          46          47          48          49          50
 ........................................................................................................................
   1    10.00       9.952       9.904       9.847       9.803       9.765       9.715       9.645       9.570       9.500    
        9.346       9.153       9.011       8.853       8.684       8.513       8.354       8.172       7.929       7.686    
        7.521       7.332       7.082       6.829       6.603       6.407       6.127       5.871       5.691       5.501    
        5.339       5.234       5.120       4.992       4.869       4.716       4.551       4.329       4.074       3.794    
        3.433       3.066       2.583       2.055       1.657       1.371       1.157      0.9127      0.5358       0.000    
   2    10.00       9.947       9.895       9.848       9.810       9.773       9.718       9.647       9.577       9.483    
        9.332       9.160       9.000       8.855       8.699       8.523       8.335       8.147       7.920       7.676    
        7.495       7.340       7.074       6.800       6.599       6.377       6.106       5.863       5.655       5.476    
        5.339       5.242       5.147       5.010       4.866       4.714       4.525       4.317       4.070       3.751    
        3.414       3.101       2.594       2.070       1.718       1.463       1.216      0.9427      0.5691       0.000    
   3    10.00       9.938       9.895       9.862       9.826       9.788       9.728       9.644       9.559       9.457    
        9.320       9.167       9.013       8.867       8.681       8.460       8.276       8.114       7.905       7.691    
        7.506       7.284       7.021       6.780       6.561       6.312       6.052       5.811       5.597       5.465    
        5.353       5.261       5.165       5.014       4.862       4.701       4.514       4.281       4.005       3.761    
        3.462       3.036       2.542       2.165       1.866       1.570       1.266      0.9554      0.5395       0.000    
   4    10.00       9.938       9.900       9.870       9.845       9.805       9.736       9.639       9.539       9.437    
        9.306       9.169       9.015       8.831       8.602       8.397       8.266       8.083       7.881       7.713    
        7.459       7.178       6.947       6.732       6.520       6.222       5.934       5.741       5.596       5.483    
        5.382       5.286       5.181       5.006       4.819       4.672       4.474       4.234       3.998       3.785    
        3.446       2.976       2.603       2.286       1.964       1.628       1.263      0.8994      0.4610       0.000    
   5    10.00       9.943       9.908       9.879       9.856       9.815       9.742       9.631       9.519       9.417    
        9.306       9.164       8.966       8.751       8.557       8.395       8.231       8.060       7.871       7.634    
        7.339       7.106       6.914       6.697       6.425       6.115       5.878       5.741       5.623       5.508    
        5.392       5.274       5.155       4.986       4.795       4.617       4.440       4.251       4.037       3.755    
        3.371       3.013       2.694       2.375       2.025       1.633       1.174      0.7572      0.3921       0.000    
   6    10.00       9.953       9.919       9.889       9.859       9.813       9.735       9.615       9.518       9.408    
        9.284       9.108       8.891       8.712       8.533       8.348       8.180       8.028       7.816       7.546    
        7.284       7.062       6.865       6.596       6.301       6.066       5.875       5.747       5.615       5.496    
        5.394       5.265       5.116       4.941       4.755       4.603       4.449       4.278       4.053       3.750    
        3.414       3.069       2.743       2.420       2.040       1.566       1.073      0.7119      0.3665       0.000    
   7    10.00       9.959       9.929       9.899       9.865       9.810       9.706       9.590       9.489       9.353    
        9.226       9.039       8.841       8.657       8.473       8.285       8.121       7.980       7.737       7.450    
        7.212       6.986       6.767       6.505       6.255       6.041       5.874       5.720       5.578       5.486    
        5.382       5.238       5.080       4.905       4.745       4.611       4.468       4.293       4.063       3.787    
        3.454       3.098       2.761       2.405       2.029       1.532       1.026      0.6779      0.3209       0.000    
   8    10.00       9.966       9.939       9.906       9.867       9.779       9.651       9.542       9.415       9.286    
        9.144       8.953       8.784       8.597       8.391       8.206       8.064       7.896       7.665       7.386    
        7.111       6.903       6.720       6.452       6.191       6.000       5.811       5.644       5.548       5.458    
        5.333       5.191       5.058       4.904       4.739       4.600       4.491       4.358       4.134       3.817    
        3.453       3.137       2.822       2.408       1.989       1.434      0.9504      0.6639      0.3073       0.000    
   9    10.00       9.973       9.943       9.905       9.840       9.724       9.588       9.460       9.348       9.215    
        9.048       8.877       8.710       8.529       8.316       8.143       8.010       7.811       7.583       7.298    
        7.059       6.852       6.593       6.318       6.097       5.927       5.737       5.598       5.505       5.402    
        5.288       5.160       5.035       4.901       4.759       4.628       4.519       4.400       4.169       3.826    
        3.491       3.211       2.880       2.481       1.862       1.235      0.9054      0.5614      0.2142       0.000    
  10    10.00       9.973       9.942       9.889       9.789       9.650       9.499       9.400       9.294       9.136    
        8.990       8.821       8.654       8.458       8.261       8.105       7.925       7.719       7.478       7.247    
        7.013       6.694       6.427       6.210       6.023       5.869       5.694       5.553       5.460       5.375    
        5.256       5.118       5.006       4.883       4.758       4.669       4.561       4.424       4.159       3.820    
        3.558       3.312       2.932       2.331       1.613       1.159      0.8216      0.5018      0.2503       0.000    
  11    10.00       9.973       9.931       9.849       9.737       9.582       9.448       9.364       9.238       9.103    
        8.963       8.785       8.585       8.375       8.209       8.041       7.872       7.651       7.416       7.188    
        6.853       6.546       6.333       6.138       5.957       5.787       5.620       5.510       5.433       5.349    
        5.213       5.084       4.992       4.882       4.782       4.682       4.560       4.411       4.162       3.891    
        3.616       3.296       2.881       2.219       1.547       1.090      0.7699      0.5841      0.3227       0.000    
  12    10.00       9.971       9.912       9.807       9.660       9.505       9.399       9.316       9.205       9.084    
        8.929       8.741       8.539       8.353       8.184       7.998       7.803       7.576       7.337       7.027    
        6.695       6.463       6.253       6.054       5.854       5.685       5.568       5.486       5.387       5.278    
        5.157       5.063       4.982       4.896       4.808       4.708       4.577       4.397       4.167       3.923    
        3.628       3.279       2.712       1.966       1.395       1.073      0.8547      0.6199      0.3534       0.000    
  13    10.00       9.961       9.870       9.726       9.572       9.439       9.354       9.280       9.186       9.068    
        8.906       8.709       8.524       8.375       8.178       7.949       7.722       7.476       7.209       6.906    
        6.615       6.363       6.136       5.929       5.737       5.614       5.540       5.424       5.296       5.199    
        5.122       5.049       4.976       4.905       4.821       4.733       4.615       4.410       4.175       3.887    
        3.548       3.106       2.448       1.844       1.428       1.154      0.8985      0.6214      0.3071       0.000    
  14    10.00       9.930       9.799       9.640       9.497       9.392       9.335       9.267       9.177       9.048    
        8.868       8.700       8.548       8.392       8.170       7.900       7.655       7.376       7.079       6.764    
        6.481       6.229       6.004       5.801       5.651       5.567       5.476       5.335       5.227       5.154    
        5.099       5.030       4.969       4.903       4.827       4.757       4.619       4.408       4.160       3.801    
        3.402       2.881       2.374       1.934       1.520       1.198      0.9145      0.6220      0.2771       0.000    
  15    10.00       9.868       9.723       9.580       9.466       9.386       9.322       9.258       9.169       9.048    
        8.889       8.725       8.575       8.356       8.095       7.836       7.563       7.274       6.920       6.584    
        6.322       6.078       5.866       5.711       5.599       5.509       5.399       5.267       5.179       5.127    
        5.064       5.008       4.962       4.899       4.828       4.753       4.606       4.407       4.094       3.706    
        3.293       2.826       2.415       1.960       1.612       1.269      0.9260      0.6162      0.2528       0.000    
  16    10.00       9.846       9.689       9.558       9.460       9.387       9.321       9.262       9.175       9.050    
        8.901       8.744       8.558       8.279       7.994       7.778       7.510       7.122       6.719       6.406    
        6.136       5.933       5.761       5.629       5.505       5.424       5.302       5.195       5.128       5.069    
        5.024       4.989       4.940       4.882       4.819       4.733       4.598       4.357       4.016       3.664    
        3.311       2.862       2.400       2.000       1.672       1.311      0.9234      0.5524      0.2080       0.000    
  17    10.00       9.826       9.668       9.563       9.475       9.401       9.336       9.270       9.175       9.059    
        8.919       8.721       8.467       8.166       7.926       7.722       7.394       6.957       6.548       6.246    
        6.030       5.802       5.611       5.471       5.369       5.267       5.161       5.094       5.040       5.008    
        4.992       4.960       4.909       4.852       4.787       4.694       4.535       4.325       4.051       3.683    
        3.280       2.807       2.381       2.027       1.691       1.321      0.9431      0.5756      0.2434       0.000    
  18    10.00       9.816       9.667       9.576       9.497       9.426       9.362       9.281       9.188       9.063    
        8.896       8.661       8.379       8.123       7.888       7.588       7.207       6.808       6.447       6.150    
        5.884       5.593       5.427       5.310       5.221       5.105       5.037       4.980       4.946       4.951    
        4.944       4.916       4.866       4.803       4.736       4.637       4.486       4.316       4.079       3.740    
        3.218       2.714       2.366       2.029       1.743       1.355      0.9381      0.5646      0.2433       0.000    
  19    10.00       9.824       9.700       9.606       9.522       9.450       9.375       9.300       9.214       9.070    
        8.872       8.622       8.342       8.058       7.746       7.421       7.068       6.683       6.319       6.005    
        5.695       5.441       5.309       5.218       5.092       4.990       4.932       4.881       4.871       4.874    
        4.879       4.862       4.804       4.746       4.691       4.616       4.474       4.288       4.049       3.652    
        3.127       2.699       2.352       2.021       1.701       1.300      0.9015      0.5613      0.2646       0.000    
  20    10.00       9.834       9.728       9.646       9.564       9.479       9.390       9.310       9.223       9.076    
        8.861       8.601       8.275       7.906       7.548       7.283       6.927       6.514       6.194       5.882    
        5.605       5.395       5.235       5.097       4.936       4.865       4.827       4.801       4.805       4.806    
        4.810       4.786       4.739       4.705       4.660       4.584       4.421       4.235       3.962       3.517    
        3.064       2.723       2.322       1.945       1.595       1.200      0.9042      0.5575      0.2473       0.000    
  21    10.00       9.858       9.763       9.680       9.591       9.509       9.411       9.324       9.230       9.064    
        8.833       8.514       8.108       7.675       7.342       7.100       6.765       6.464       6.164       5.826    
        5.563       5.330       5.129       4.869       4.735       4.699       4.643       4.680       4.715       4.712    
        4.709       4.681       4.673       4.656       4.620       4.516       4.356       4.194       3.798       3.336    
        2.998       2.629       2.220       1.868       1.498       1.152      0.8188      0.4912      0.2468       0.000    
  22    10.00       9.888       9.788       9.699       9.612       9.535       9.424       9.311       9.201       9.030    
        8.746       8.346       7.887       7.481       7.195       6.942       6.687       6.469       6.139       5.807    
        5.530       5.198       4.837       4.565       4.465       4.366       4.380       4.484       4.525       4.546    
        4.564       4.563       4.586       4.600       4.566       4.459       4.300       4.001       3.550       3.254    
        2.891       2.493       2.126       1.787       1.471       1.060      0.7106      0.4709      0.2648       0.000    
  23    10.00       9.890       9.794       9.712       9.622       9.520       9.394       9.291       9.195       8.979    
        8.631       8.200       7.781       7.427       7.134       6.920       6.679       6.393       6.077       5.812    
        5.428       4.940       4.554       4.276       3.869       3.870       4.088       4.210       4.299       4.385    
        4.424       4.457       4.494       4.523       4.493       4.386       4.154       3.809       3.442       3.078    
        2.731       2.402       2.048       1.781       1.381      0.9638      0.6911      0.4528      0.2351       0.000    
  24    10.00       9.914       9.805       9.698       9.593       9.476       9.363       9.275       9.167       8.912    
        8.516       8.109       7.762       7.453       7.173       6.892       6.598       6.338       6.087       5.777    
        5.316       4.833       4.374       3.536       2.641       3.163       3.664       3.957       4.120       4.256    
        4.329       4.377       4.423       4.434       4.401       4.262       4.003       3.720       3.317       2.930    
        2.658       2.342       2.007       1.665       1.236      0.8942      0.6647      0.4240      0.1871       0.000    
  25    10.00       9.906       9.780       9.650       9.527       9.420       9.334       9.245       9.112       8.848    
        8.432       8.053       7.786       7.498       7.174       6.882       6.607       6.379       6.146       5.747    
        5.220       4.744       4.009       2.648     -0.1954       2.548       3.339       3.802       4.045       4.187    
        4.271       4.328       4.367       4.365       4.318       4.163       3.887       3.556       3.228       2.900    
        2.592       2.249       1.868       1.507       1.100      0.8209      0.6616      0.4120      0.1527       0.000    
  26    10.00       9.883       9.720       9.574       9.475       9.389       9.303       9.194       9.037       8.711    
        8.323       8.058       7.802       7.514       7.211       6.931       6.672       6.446       6.153       5.728    
        5.265       4.739       4.096       3.360       2.684       3.041       3.512       3.838       4.036       4.166    
        4.246       4.304       4.326       4.312       4.241       4.054       3.745       3.478       3.215       2.864    
        2.544       2.156       1.719       1.331      0.9995      0.8029      0.6255      0.3670      0.1562       0.000    
  27    10.00       9.857       9.684       9.547       9.463       9.351       9.238       9.100       8.890       8.579    
        8.305       8.070       7.810       7.529       7.232       7.010       6.831       6.526       6.156       5.723    
        5.330       4.949       4.431       3.947       3.564       3.622       3.803       3.962       4.089       4.181    
        4.263       4.309       4.313       4.276       4.178       3.963       3.717       3.483       3.177       2.847    
        2.516       2.049       1.549       1.185      0.9535      0.7894      0.5945      0.3877      0.1870       0.000    
  28    10.00       9.838       9.711       9.558       9.415       9.278       9.152       8.989       8.779       8.538    
        8.312       8.102       7.844       7.531       7.266       7.087       6.887       6.552       6.124       5.741    
        5.462       5.177       4.771       4.393       4.150       4.069       4.063       4.111       4.191       4.266    
        4.318       4.327       4.314       4.254       4.124       3.929       3.732       3.456       3.138       2.806    
        2.402       1.961       1.465       1.104      0.9428      0.7860      0.6127      0.4048      0.1877       0.000    
  29    10.00       9.843       9.686       9.523       9.352       9.219       9.077       8.896       8.718       8.527    
        8.325       8.116       7.866       7.601       7.374       7.163       6.896       6.524       6.133       5.835    
        5.598       5.348       5.014       4.678       4.479       4.370       4.302       4.300       4.337       4.360    
        4.362       4.352       4.318       4.235       4.085       3.918       3.735       3.477       3.125       2.705    
        2.335       1.867       1.371       1.088      0.9456      0.7914      0.6079      0.3953      0.1966       0.000    
  30    10.00       9.820       9.661       9.466       9.293       9.170       9.018       8.859       8.721       8.549    
        8.343       8.117       7.888       7.677       7.475       7.237       6.898       6.551       6.239       5.955    
        5.751       5.504       5.200       4.908       4.669       4.572       4.508       4.482       4.457       4.433    
        4.406       4.378       4.323       4.213       4.076       3.942       3.759       3.428       2.992       2.562    
        2.186       1.756       1.379       1.117      0.9669      0.7930      0.5970      0.4143      0.2033       0.000    
  31    10.00       9.797       9.613       9.426       9.269       9.142       8.998       8.857       8.720       8.553    
        8.348       8.121       7.924       7.749       7.560       7.291       6.956       6.655       6.409       6.158    
        5.940       5.661       5.362       5.116       4.872       4.714       4.649       4.586       4.539       4.490    
        4.452       4.399       4.322       4.214       4.081       3.931       3.641       3.269       2.906       2.487    
        2.131       1.703       1.335       1.145      0.9845      0.8208      0.6169      0.4147      0.1966       0.000    
  32    10.00       9.781       9.583       9.423       9.291       9.164       9.014       8.853       8.688       8.529    
        8.328       8.132       7.956       7.763       7.587       7.359       7.099       6.873       6.620       6.360    
        6.141       5.881       5.579       5.314       5.061       4.837       4.750       4.668       4.602       4.532    
        4.478       4.426       4.322       4.187       4.062       3.853       3.493       3.143       2.823       2.440    
        2.026       1.626       1.356       1.210       1.034      0.8277      0.6121      0.3938      0.1965       0.000    
  33    10.00       9.774       9.605       9.477       9.345       9.197       9.017       8.838       8.661       8.480    
        8.312       8.147       7.974       7.790       7.595       7.418       7.228       7.035       6.828       6.574    
        6.320       6.075       5.821       5.513       5.201       4.947       4.818       4.736       4.652       4.565    
        4.500       4.425       4.311       4.181       3.998       3.709       3.339       3.043       2.734       2.288    
        1.911       1.650       1.435       1.262       1.061      0.8437      0.5797      0.3464      0.1561       0.000    
  34    10.00       9.794       9.656       9.535       9.389       9.208       9.018       8.809       8.614       8.463    
        8.312       8.162       8.005       7.816       7.644       7.473       7.309       7.156       6.957       6.700    
        6.459       6.238       5.987       5.666       5.323       5.040       4.873       4.776       4.682       4.583    
        4.498       4.416       4.302       4.139       3.914       3.557       3.197       2.931       2.563       2.170    
        1.938       1.765       1.559       1.335       1.071      0.7651      0.4683      0.2774      0.1150       0.000    
  35    10.00       9.828       9.704       9.581       9.425       9.222       9.004       8.773       8.587       8.457    
        8.357       8.206       8.032       7.831       7.648       7.527       7.406       7.249       7.044       6.799    
        6.569       6.350       6.119       5.759       5.371       5.100       4.917       4.806       4.697       4.585    
        4.498       4.401       4.267       4.052       3.702       3.330       3.090       2.813       2.438       2.201    
        2.039       1.844       1.636       1.418       1.084      0.6506      0.3597      0.2365      0.1200       0.000    
  36    10.00       9.849       9.740       9.623       9.457       9.216       8.951       8.733       8.600       8.500    
        8.363       8.192       8.032       7.855       7.694       7.574       7.459       7.320       7.158       6.932    
        6.693       6.462       6.177       5.791       5.408       5.133       4.959       4.827       4.693       4.579    
        4.481       4.357       4.143       3.821       3.501       3.246       3.021       2.730       2.431       2.275    
        2.110       1.935       1.725       1.444      0.9889      0.5480      0.3379      0.2163      0.1111       0.000    
  37    10.00       9.865       9.781       9.655       9.434       9.170       8.936       8.767       8.656       8.536    
        8.360       8.177       8.039       7.886       7.736       7.621       7.516       7.387       7.217       7.020    
        6.826       6.573       6.217       5.851       5.487       5.176       4.967       4.802       4.678       4.557    
        4.434       4.251       3.931       3.639       3.414       3.194       2.961       2.732       2.519       2.344    
        2.186       1.989       1.751       1.381      0.9066      0.5285      0.3166      0.2012      0.1009       0.000    
  38    10.00       9.885       9.784       9.646       9.417       9.146       8.948       8.822       8.708       8.566    
        8.380       8.187       8.053       7.912       7.763       7.648       7.557       7.445       7.278       7.108    
        6.929       6.640       6.235       5.839       5.480       5.175       4.947       4.763       4.641       4.528    
        4.360       4.058       3.775       3.591       3.369       3.150       2.983       2.790       2.595       2.427    
        2.240       1.971       1.669       1.268      0.7969      0.5067      0.3564      0.2221      9.9665E-02   0.000    
  39    10.00       9.884       9.769       9.625       9.404       9.158       8.980       8.868       8.728       8.573    
        8.421       8.228       8.073       7.940       7.797       7.675       7.572       7.463       7.329       7.175    
        6.967       6.659       6.240       5.797       5.427       5.143       4.883       4.695       4.599       4.491    
        4.233       3.919       3.742       3.533       3.326       3.171       3.031       2.855       2.666       2.508    
        2.238       1.857       1.502       1.068      0.7111      0.5490      0.4087      0.2661      0.1369       0.000    
  40    10.00       9.875       9.774       9.627       9.424       9.218       9.044       8.897       8.732       8.589    
        8.475       8.287       8.093       7.958       7.826       7.688       7.575       7.488       7.371       7.188    
        6.949       6.595       6.169       5.753       5.375       5.079       4.786       4.638       4.553       4.408    
        4.174       3.939       3.701       3.484       3.338       3.204       3.071       2.907       2.732       2.525    
        2.159       1.744       1.359       1.007      0.7630      0.5960      0.4562      0.3220      0.1581       0.000    
  41    10.00       9.892       9.812       9.669       9.460       9.246       9.080       8.948       8.786       8.616    
        8.482       8.310       8.131       8.004       7.850       7.686       7.588       7.495       7.344       7.144    
        6.898       6.552       6.126       5.720       5.342       4.947       4.676       4.596       4.504       4.396    
        4.210       3.928       3.688       3.516       3.371       3.251       3.105       2.948       2.767       2.445    
        2.016       1.612       1.276       1.017      0.8060      0.6509      0.5016      0.3544      0.1866       0.000    
  42    10.00       9.919       9.830       9.694       9.514       9.310       9.123       8.987       8.842       8.655    
        8.482       8.319       8.167       8.045       7.884       7.709       7.592       7.465       7.300       7.073    
        6.791       6.412       6.040       5.638       5.146       4.795       4.654       4.590       4.511       4.394    
        4.178       3.931       3.707       3.533       3.416       3.288       3.159       2.989       2.701       2.274    
        1.899       1.597       1.306       1.013      0.8166      0.6848      0.5415      0.3691      0.2048       0.000    
  43    10.00       9.936       9.841       9.701       9.524       9.355       9.189       9.037       8.857       8.665    
        8.506       8.342       8.192       8.079       7.928       7.732       7.576       7.432       7.206       6.916    
        6.640       6.276       5.932       5.471       5.008       4.778       4.667       4.593       4.518       4.395    
        4.190       3.964       3.749       3.579       3.467       3.340       3.171       2.928       2.508       2.129    
        1.895       1.627       1.320       1.017      0.8088      0.6868      0.5763      0.3993      0.1871       0.000    
  44    10.00       9.929       9.848       9.702       9.542       9.420       9.253       9.047       8.844       8.684    
        8.526       8.362       8.230       8.111       7.936       7.728       7.548       7.376       7.109       6.818    
        6.488       6.124       5.759       5.298       4.952       4.781       4.686       4.622       4.540       4.386    
        4.175       3.995       3.805       3.647       3.532       3.360       3.135       2.787       2.359       2.108    
        1.894       1.614       1.309       1.031      0.8191      0.6890      0.5769      0.3912      0.1724       0.000    
  45    10.00       9.914       9.818       9.700       9.583       9.428       9.253       9.057       8.855       8.695    
        8.532       8.383       8.267       8.132       7.941       7.718       7.517       7.320       7.032       6.690    
        6.309       5.924       5.531       5.192       4.953       4.809       4.717       4.649       4.546       4.419    
        4.237       4.032       3.863       3.701       3.537       3.354       3.107       2.737       2.366       2.072    
        1.828       1.565       1.279       1.030      0.8452      0.7372      0.5696      0.3391      0.1546       0.000    
  46    10.00       9.897       9.796       9.703       9.571       9.393       9.224       9.064       8.865       8.694    
        8.550       8.411       8.295       8.134       7.930       7.731       7.518       7.261       6.949       6.577    
        6.130       5.746       5.433       5.176       4.994       4.867       4.754       4.663       4.581       4.440    
        4.247       4.069       3.903       3.718       3.555       3.380       3.102       2.675       2.285       2.023    
        1.793       1.541       1.272       1.054      0.9102      0.7711      0.5168      0.2540      0.1105       0.000    
  47    10.00       9.891       9.789       9.660       9.506       9.360       9.215       9.042       8.861       8.708    
        8.576       8.452       8.289       8.114       7.931       7.738       7.504       7.205       6.913       6.461    
        5.975       5.676       5.406       5.205       5.036       4.912       4.799       4.688       4.593       4.448    
        4.246       4.071       3.903       3.728       3.587       3.375       2.989       2.606       2.279       2.001    
        1.799       1.560       1.321       1.110      0.9325      0.7078      0.4254      0.2223      9.2598E-02   0.000    
  48    10.00       9.878       9.756       9.619       9.479       9.350       9.203       9.044       8.877       8.727    
        8.593       8.448       8.269       8.089       7.910       7.719       7.495       7.213       6.850       6.401    
        5.982       5.675       5.412       5.227       5.090       4.938       4.823       4.731       4.613       4.416    
        4.218       4.047       3.893       3.763       3.578       3.298       2.931       2.585       2.276       2.031    
        1.813       1.586       1.370       1.132      0.8652      0.5754      0.3637      0.2157      9.7469E-02   0.000    
  49    10.00       9.867       9.734       9.600       9.486       9.352       9.196       9.040       8.905       8.749    
        8.588       8.406       8.231       8.080       7.876       7.690       7.504       7.189       6.829       6.472    
        6.029       5.688       5.426       5.265       5.104       4.940       4.851       4.763       4.575       4.337    
        4.168       4.031       3.919       3.750       3.535       3.285       2.918       2.572       2.330       2.069    
        1.813       1.604       1.374       1.093      0.7663      0.5132      0.3639      0.2349      0.1205       0.000    
  50    10.00       9.872       9.739       9.602       9.478       9.346       9.207       9.054       8.912       8.773    
        8.576       8.386       8.225       8.023       7.815       7.673       7.496       7.252       6.896       6.543    
        6.091       5.661       5.434       5.270       5.102       4.969       4.862       4.744       4.522       4.296    
        4.156       4.043       3.913       3.737       3.538       3.300       2.928       2.574       2.338       2.103    
        1.859       1.596       1.337       1.037      0.7144      0.5251      0.3916      0.2654      0.1601       0.000    

 HEAD WILL BE SAVED ON UNIT   51 AT END OF TIME STEP  58, STRESS PERIOD    2

 DRAWDOWN WILL BE SAVED ON UNIT   52 AT END OF TIME STEP  58, STRESS PERIOD    2
1
  VOLUMETRIC BUDGET FOR ENTIRE MODEL AT END OF TIME STEP 58 IN STRESS PERIOD   2
  ------------------------------------------------------------------------------

     CUMULATIVE VOLUMES      L**3       RATES FOR THIS TIME STEP      L**3/T
     ------------------                 ------------------------

           IN:                                      IN:
           ---                                      ---
             STORAGE =       28591.2168               STORAGE =         473.2077
       CONSTANT HEAD =       22349.3965         CONSTANT HEAD =         396.1995
               WELLS =           0.0000                 WELLS =           0.0000

            TOTAL IN =       50940.6133              TOTAL IN =         869.4072

          OUT:                                     OUT:
          ----                                     ----
             STORAGE =       1.1143E-02               STORAGE =           0.0000
       CONSTANT HEAD =       21940.5996         CONSTANT HEAD =         369.4072
               WELLS =       29000.0000                 WELLS =         500.0000

           TOTAL OUT =       50940.6094             TOTAL OUT =         869.4072

            IN - OUT =       3.9063E-03              IN - OUT =           0.0000

 PERCENT DISCREPANCY =           0.00     PERCENT DISCREPANCY =           0.00






          TIME SUMMARY AT END OF TIME STEP  58 IN STRESS PERIOD    2
                    SECONDS     MINUTES      HOURS       DAYS        YEARS
                    -----------------------------------------------------------
   TIME STEP LENGTH  86400.      1440.0      24.000      1.0000     2.73785E-03
 STRESS PERIOD TIME 5.01120E+06  83520.      1392.0      58.000     0.15880    
         TOTAL TIME 5.09760E+06  84960.      1416.0      59.000     0.16153    
1
 
 SOLVING FOR HEAD 

 OUTPUT CONTROL FOR STRESS PERIOD    2   TIME STEP  59
    SAVE HEAD FOR ALL LAYERS
    SAVE DRAWDOWN FOR ALL LAYERS
    SAVE BUDGET
    PRINT HEAD FOR ALL LAYERS
    PRINT BUDGET
 UBDSV1 SAVING "         STORAGE" ON UNIT  53 AT TIME STEP 59, STRESS PERIOD   2
 UBDSV2 SAVING "   CONSTANT HEAD" ON UNIT  53 AT TIME STEP 59, STRESS PERIOD   2
 UBDSV1 SAVING "FLOW RIGHT FACE " ON UNIT  53 AT TIME STEP 59, STRESS PERIOD   2
 UBDSV1 SAVING "FLOW FRONT FACE " ON UNIT  53 AT TIME STEP 59, STRESS PERIOD   2
1
              HEAD IN LAYER   1 AT END OF TIME STEP  59 IN STRESS PERIOD    2
  ---------------------------------------------------------------------------

            1           2           3           4           5           6           7           8           9          10
           11          12          13          14          15          16          17          18          19          20
           21          22          23          24          25          26          27          28          29          30
           31          32          33          34          35          36          37          38          39          40
           41          42          43          44          45          46          47          48          49          50
 ........................................................................................................................
   1    10.00       9.952       9.904       9.847       9.802       9.765       9.715       9.645       9.569       9.499    
        9.345       9.152       9.010       8.851       8.682       8.511       8.352       8.170       7.926       7.684    
        7.518       7.328       7.079       6.826       6.600       6.403       6.122       5.867       5.686       5.497    
        5.334       5.229       5.116       4.988       4.865       4.712       4.548       4.325       4.071       3.791    
        3.431       3.064       2.581       2.054       1.657       1.371       1.157      0.9123      0.5356       0.000    
   2    10.00       9.947       9.895       9.847       9.810       9.773       9.717       9.646       9.577       9.482    
        9.331       9.159       8.999       8.854       8.698       8.521       8.333       8.145       7.918       7.673    
        7.492       7.337       7.070       6.796       6.595       6.373       6.102       5.858       5.650       5.471    
        5.334       5.238       5.142       5.005       4.861       4.710       4.521       4.314       4.067       3.748    
        3.411       3.099       2.592       2.069       1.717       1.462       1.215      0.9422      0.5689       0.000    
   3    10.00       9.938       9.895       9.862       9.826       9.788       9.728       9.643       9.559       9.456    
        9.319       9.166       9.012       8.866       8.679       8.458       8.274       8.112       7.902       7.688    
        7.503       7.280       7.017       6.776       6.557       6.308       6.047       5.806       5.592       5.460    
        5.348       5.256       5.160       5.010       4.858       4.697       4.510       4.278       4.002       3.758    
        3.460       3.034       2.540       2.164       1.865       1.569       1.266      0.9550      0.5392       0.000    
   4    10.00       9.938       9.900       9.870       9.845       9.805       9.736       9.638       9.538       9.436    
        9.305       9.168       9.013       8.829       8.600       8.395       8.263       8.080       7.878       7.710    
        7.456       7.174       6.942       6.728       6.516       6.217       5.928       5.735       5.591       5.478    
        5.377       5.281       5.177       5.001       4.814       4.668       4.470       4.230       3.995       3.782    
        3.443       2.973       2.601       2.285       1.963       1.627       1.262      0.8989      0.4607       0.000    
   5    10.00       9.943       9.908       9.878       9.856       9.814       9.741       9.630       9.518       9.416    
        9.305       9.163       8.964       8.749       8.555       8.393       8.228       8.057       7.868       7.631    
        7.335       7.102       6.910       6.692       6.420       6.110       5.873       5.736       5.617       5.502    
        5.387       5.269       5.150       4.981       4.790       4.613       4.436       4.247       4.033       3.752    
        3.368       3.011       2.693       2.374       2.023       1.632       1.174      0.7568      0.3919       0.000    
   6    10.00       9.952       9.918       9.889       9.858       9.813       9.735       9.615       9.517       9.407    
        9.283       9.107       8.889       8.710       8.531       8.345       8.177       8.024       7.812       7.542    
        7.280       7.057       6.860       6.591       6.295       6.061       5.869       5.742       5.609       5.490    
        5.388       5.259       5.110       4.936       4.750       4.598       4.445       4.274       4.049       3.746    
        3.411       3.066       2.741       2.419       2.039       1.565       1.072      0.7115      0.3664       0.000    
   7    10.00       9.959       9.929       9.898       9.865       9.810       9.705       9.590       9.488       9.352    
        9.225       9.037       8.839       8.655       8.470       8.282       8.118       7.977       7.733       7.445    
        7.208       6.981       6.761       6.500       6.249       6.035       5.867       5.714       5.572       5.479    
        5.375       5.232       5.074       4.899       4.740       4.605       4.463       4.288       4.058       3.783    
        3.451       3.096       2.759       2.403       2.028       1.532       1.025      0.6775      0.3207       0.000    
   8    10.00       9.966       9.939       9.906       9.867       9.779       9.651       9.541       9.414       9.284    
        9.143       8.951       8.782       8.594       8.388       8.202       8.060       7.892       7.660       7.381    
        7.105       6.897       6.714       6.446       6.184       5.994       5.804       5.637       5.541       5.451    
        5.326       5.184       5.051       4.898       4.733       4.594       4.485       4.353       4.129       3.813    
        3.449       3.134       2.819       2.406       1.988       1.433      0.9498      0.6635      0.3071       0.000    
   9    10.00       9.973       9.943       9.905       9.840       9.723       9.587       9.459       9.347       9.213    
        9.046       8.875       8.707       8.526       8.313       8.139       8.006       7.806       7.578       7.292    
        7.053       6.846       6.586       6.310       6.089       5.919       5.729       5.591       5.497       5.394    
        5.281       5.153       5.027       4.894       4.752       4.621       4.513       4.395       4.164       3.822    
        3.488       3.208       2.877       2.479       1.860       1.234      0.9048      0.5611      0.2140       0.000    
  10    10.00       9.973       9.941       9.889       9.788       9.650       9.498       9.398       9.292       9.134    
        8.988       8.818       8.651       8.455       8.257       8.101       7.920       7.714       7.472       7.241    
        7.006       6.687       6.419       6.202       6.015       5.861       5.686       5.545       5.451       5.367    
        5.248       5.110       4.998       4.875       4.751       4.662       4.555       4.418       4.153       3.815    
        3.554       3.308       2.929       2.329       1.612       1.158      0.8211      0.5014      0.2502       0.000    
  11    10.00       9.973       9.931       9.849       9.736       9.581       9.447       9.363       9.236       9.101    
        8.961       8.783       8.582       8.371       8.205       8.036       7.867       7.645       7.410       7.182    
        6.845       6.538       6.325       6.130       5.948       5.778       5.611       5.501       5.424       5.340    
        5.204       5.076       4.984       4.874       4.774       4.675       4.553       4.405       4.156       3.886    
        3.612       3.292       2.878       2.217       1.546       1.089      0.7694      0.5837      0.3225       0.000    
  12    10.00       9.971       9.912       9.806       9.659       9.504       9.398       9.314       9.203       9.081    
        8.927       8.737       8.535       8.349       8.179       7.993       7.798       7.570       7.331       7.020    
        6.687       6.454       6.244       6.045       5.844       5.675       5.559       5.477       5.378       5.269    
        5.148       5.054       4.973       4.887       4.800       4.700       4.570       4.390       4.161       3.918    
        3.624       3.276       2.709       1.965       1.394       1.072      0.8541      0.6194      0.3532       0.000    
  13    10.00       9.961       9.870       9.725       9.571       9.438       9.352       9.278       9.184       9.066    
        8.903       8.705       8.520       8.370       8.173       7.944       7.716       7.469       7.202       6.898    
        6.607       6.354       6.126       5.919       5.727       5.603       5.530       5.414       5.286       5.189    
        5.112       5.039       4.967       4.896       4.812       4.725       4.607       4.403       4.169       3.881    
        3.543       3.103       2.445       1.842       1.427       1.153      0.8979      0.6210      0.3069       0.000    
  14    10.00       9.929       9.798       9.639       9.495       9.391       9.333       9.265       9.174       9.045    
        8.865       8.696       8.544       8.388       8.165       7.894       7.648       7.368       7.071       6.755    
        6.472       6.219       5.994       5.790       5.641       5.556       5.466       5.325       5.217       5.144    
        5.089       5.020       4.960       4.893       4.818       4.749       4.611       4.401       4.154       3.795    
        3.397       2.878       2.372       1.932       1.519       1.197      0.9138      0.6216      0.2769       0.000    
  15    10.00       9.868       9.722       9.579       9.464       9.384       9.320       9.256       9.166       9.045    
        8.886       8.722       8.571       8.351       8.089       7.829       7.556       7.266       6.912       6.574    
        6.312       6.067       5.856       5.700       5.588       5.498       5.388       5.256       5.168       5.116    
        5.054       4.998       4.952       4.889       4.819       4.744       4.598       4.399       4.088       3.701    
        3.289       2.822       2.413       1.959       1.611       1.268      0.9253      0.6158      0.2527       0.000    
  16    10.00       9.846       9.688       9.557       9.458       9.385       9.319       9.260       9.173       9.047    
        8.898       8.740       8.554       8.274       7.988       7.771       7.502       7.114       6.709       6.396    
        6.126       5.922       5.749       5.617       5.493       5.412       5.291       5.184       5.117       5.058    
        5.013       4.978       4.930       4.872       4.809       4.723       4.589       4.349       4.009       3.659    
        3.306       2.858       2.398       1.998       1.670       1.310      0.9228      0.5520      0.2078       0.000    
  17    10.00       9.826       9.666       9.561       9.473       9.399       9.334       9.267       9.173       9.056    
        8.916       8.717       8.462       8.160       7.919       7.715       7.385       6.948       6.537       6.235    
        6.018       5.791       5.599       5.459       5.357       5.254       5.149       5.083       5.028       4.997    
        4.981       4.949       4.899       4.842       4.777       4.684       4.526       4.317       4.044       3.677    
        3.276       2.803       2.378       2.025       1.689       1.320      0.9425      0.5752      0.2432       0.000    
  18    10.00       9.815       9.666       9.575       9.495       9.424       9.360       9.279       9.186       9.060    
        8.892       8.657       8.373       8.117       7.881       7.580       7.197       6.798       6.436       6.139    
        5.872       5.580       5.414       5.297       5.208       5.093       5.025       4.968       4.934       4.939    
        4.933       4.905       4.855       4.792       4.725       4.627       4.477       4.307       4.071       3.734    
        3.213       2.710       2.363       2.027       1.742       1.354      0.9375      0.5643      0.2431       0.000    
  19    10.00       9.823       9.699       9.605       9.521       9.448       9.373       9.298       9.212       9.067    
        8.868       8.617       8.336       8.051       7.738       7.412       7.058       6.672       6.308       5.993    
        5.682       5.428       5.296       5.205       5.079       4.977       4.919       4.868       4.859       4.861    
        4.867       4.850       4.793       4.735       4.680       4.605       4.464       4.279       4.041       3.646    
        3.123       2.696       2.350       2.020       1.700       1.299      0.9009      0.5610      0.2644       0.000    
  20    10.00       9.833       9.727       9.645       9.563       9.477       9.388       9.307       9.221       9.073    
        8.857       8.596       8.269       7.898       7.539       7.273       6.916       6.503       6.182       5.869    
        5.593       5.382       5.222       5.084       4.923       4.851       4.814       4.788       4.792       4.793    
        4.798       4.773       4.727       4.694       4.649       4.573       4.411       4.226       3.954       3.511    
        3.060       2.720       2.320       1.943       1.594       1.199      0.9037      0.5572      0.2471       0.000    
  21    10.00       9.857       9.762       9.679       9.590       9.508       9.410       9.322       9.228       9.061    
        8.829       8.509       8.101       7.667       7.333       7.090       6.754       6.452       6.151       5.813    
        5.549       5.317       5.116       4.855       4.722       4.685       4.629       4.667       4.701       4.699    
        4.695       4.668       4.660       4.644       4.608       4.505       4.346       4.185       3.791       3.330    
        2.994       2.626       2.218       1.867       1.497       1.151      0.8183      0.4909      0.2467       0.000    
  22    10.00       9.888       9.788       9.698       9.611       9.534       9.422       9.308       9.199       9.027    
        8.742       8.340       7.879       7.472       7.185       6.931       6.675       6.457       6.126       5.794    
        5.517       5.184       4.823       4.551       4.451       4.352       4.366       4.471       4.511       4.532    
        4.550       4.549       4.573       4.587       4.554       4.448       4.290       3.992       3.543       3.249    
        2.887       2.490       2.123       1.786       1.470       1.060      0.7102      0.4707      0.2646       0.000    
  23    10.00       9.889       9.793       9.711       9.620       9.518       9.392       9.288       9.192       8.975    
        8.625       8.193       7.773       7.417       7.123       6.909       6.668       6.381       6.064       5.799    
        5.414       4.926       4.539       4.262       3.855       3.855       4.074       4.195       4.284       4.371    
        4.410       4.443       4.480       4.510       4.480       4.375       4.143       3.801       3.435       3.073    
        2.727       2.399       2.046       1.779       1.380      0.9632      0.6907      0.4525      0.2350       0.000    
  24    10.00       9.914       9.804       9.697       9.592       9.474       9.361       9.272       9.164       8.908    
        8.510       8.102       7.753       7.443       7.163       6.881       6.586       6.326       6.074       5.763    
        5.303       4.819       4.359       3.521       2.626       3.148       3.649       3.942       4.106       4.241    
        4.315       4.362       4.408       4.420       4.387       4.250       3.993       3.712       3.310       2.925    
        2.655       2.339       2.005       1.664       1.235      0.8936      0.6643      0.4238      0.1870       0.000    
  25    10.00       9.906       9.779       9.649       9.525       9.418       9.331       9.242       9.109       8.844    
        8.426       8.045       7.778       7.489       7.163       6.871       6.595       6.367       6.134       5.733    
        5.206       4.730       3.995       2.633     -0.2115       2.532       3.324       3.787       4.030       4.172    
        4.257       4.313       4.352       4.351       4.304       4.151       3.877       3.548       3.221       2.896    
        2.588       2.246       1.866       1.505       1.099      0.8203      0.6612      0.4118      0.1527       0.000    
  26    10.00       9.882       9.720       9.572       9.473       9.387       9.300       9.191       9.034       8.706    
        8.317       8.050       7.794       7.505       7.201       6.920       6.660       6.434       6.140       5.715    
        5.251       4.725       4.082       3.345       2.668       3.026       3.497       3.823       4.021       4.151    
        4.231       4.289       4.312       4.297       4.227       4.043       3.736       3.470       3.209       2.859    
        2.540       2.153       1.717       1.330      0.9987      0.8023      0.6251      0.3667      0.1561       0.000    
  27    10.00       9.856       9.683       9.545       9.462       9.349       9.235       9.097       8.886       8.574    
        8.299       8.063       7.802       7.520       7.222       6.999       6.820       6.514       6.144       5.710    
        5.316       4.935       4.417       3.932       3.549       3.607       3.788       3.947       4.073       4.166    
        4.248       4.295       4.299       4.262       4.165       3.952       3.708       3.475       3.170       2.842    
        2.512       2.046       1.547       1.184      0.9527      0.7889      0.5941      0.3875      0.1869       0.000    
  28    10.00       9.837       9.710       9.556       9.413       9.275       9.149       8.986       8.775       8.533    
        8.306       8.095       7.836       7.522       7.256       7.077       6.877       6.540       6.111       5.728    
        5.449       5.164       4.757       4.378       4.135       4.054       4.048       4.097       4.177       4.252    
        4.303       4.313       4.300       4.241       4.111       3.918       3.722       3.448       3.131       2.801    
        2.398       1.959       1.464       1.103      0.9420      0.7854      0.6122      0.4045      0.1876       0.000    
  29    10.00       9.843       9.685       9.521       9.350       9.217       9.074       8.892       8.714       8.521    
        8.319       8.110       7.858       7.593       7.365       7.153       6.886       6.513       6.121       5.823    
        5.585       5.335       5.000       4.664       4.465       4.356       4.288       4.285       4.323       4.346    
        4.347       4.338       4.305       4.222       4.073       3.907       3.725       3.469       3.118       2.700    
        2.331       1.864       1.370       1.087      0.9448      0.7908      0.6074      0.3951      0.1965       0.000    
  30    10.00       9.820       9.660       9.464       9.290       9.168       9.015       8.855       8.717       8.544    
        8.337       8.111       7.881       7.669       7.467       7.228       6.888       6.540       6.227       5.943    
        5.739       5.491       5.187       4.895       4.655       4.558       4.493       4.467       4.443       4.419    
        4.392       4.364       4.309       4.200       4.064       3.932       3.749       3.420       2.986       2.558    
        2.183       1.754       1.378       1.116      0.9661      0.7924      0.5965      0.4140      0.2031       0.000    
  31    10.00       9.796       9.612       9.424       9.267       9.139       8.995       8.853       8.716       8.548    
        8.343       8.115       7.917       7.742       7.551       7.282       6.946       6.644       6.398       6.146    
        5.928       5.648       5.348       5.102       4.858       4.700       4.635       4.572       4.525       4.476    
        4.438       4.386       4.309       4.201       4.069       3.920       3.632       3.262       2.901       2.483    
        2.128       1.701       1.334       1.144      0.9837      0.8202      0.6165      0.4143      0.1964       0.000    
  32    10.00       9.781       9.582       9.421       9.289       9.161       9.010       8.849       8.683       8.525    
        8.322       8.125       7.949       7.756       7.579       7.351       7.090       6.863       6.609       6.349    
        6.130       5.868       5.566       5.301       5.047       4.823       4.737       4.655       4.588       4.519    
        4.465       4.413       4.310       4.175       4.051       3.843       3.485       3.136       2.818       2.436    
        2.023       1.625       1.355       1.209       1.034      0.8270      0.6116      0.3935      0.1963       0.000    
  33    10.00       9.774       9.604       9.475       9.343       9.195       9.013       8.834       8.657       8.475    
        8.307       8.141       7.967       7.783       7.587       7.410       7.219       7.026       6.818       6.564    
        6.309       6.064       5.809       5.501       5.188       4.934       4.805       4.723       4.640       4.552    
        4.488       4.413       4.300       4.170       3.987       3.700       3.332       3.037       2.730       2.285    
        1.909       1.648       1.434       1.261       1.060      0.8430      0.5792      0.3462      0.1560       0.000    
  34    10.00       9.794       9.655       9.534       9.387       9.206       9.015       8.806       8.610       8.458    
        8.307       8.156       7.999       7.810       7.637       7.465       7.301       7.147       6.948       6.690    
        6.449       6.227       5.975       5.654       5.311       5.027       4.860       4.763       4.670       4.571    
        4.486       4.404       4.291       4.129       3.905       3.550       3.191       2.926       2.560       2.167    
        1.936       1.764       1.557       1.334       1.070      0.7645      0.4680      0.2772      0.1149       0.000    
  35    10.00       9.828       9.703       9.580       9.423       9.219       9.001       8.769       8.583       8.453    
        8.352       8.200       8.026       7.825       7.641       7.519       7.398       7.241       7.035       6.789    
        6.559       6.340       6.108       5.748       5.359       5.088       4.905       4.794       4.686       4.573    
        4.487       4.390       4.257       4.043       3.695       3.325       3.085       2.809       2.435       2.199    
        2.037       1.842       1.634       1.417       1.083      0.6501      0.3594      0.2363      0.1199       0.000    
  36    10.00       9.848       9.740       9.622       9.456       9.214       8.948       8.729       8.596       8.495    
        8.359       8.186       8.027       7.849       7.687       7.566       7.452       7.312       7.150       6.923    
        6.684       6.452       6.167       5.780       5.396       5.121       4.948       4.816       4.682       4.568    
        4.471       4.347       4.134       3.814       3.496       3.241       3.016       2.726       2.429       2.272    
        2.108       1.933       1.723       1.442      0.9880      0.5476      0.3376      0.2161      0.1111       0.000    
  37    10.00       9.864       9.780       9.654       9.432       9.168       8.933       8.763       8.652       8.532    
        8.355       8.171       8.034       7.880       7.730       7.614       7.509       7.380       7.209       7.012    
        6.817       6.564       6.207       5.841       5.477       5.166       4.956       4.792       4.669       4.548    
        4.425       4.242       3.924       3.633       3.409       3.190       2.958       2.729       2.517       2.342    
        2.183       1.987       1.749       1.380      0.9059      0.5281      0.3164      0.2011      0.1008       0.000    
  38    10.00       9.885       9.783       9.645       9.416       9.143       8.945       8.819       8.704       8.562    
        8.375       8.182       8.047       7.906       7.757       7.642       7.551       7.438       7.271       7.100    
        6.921       6.631       6.227       5.830       5.471       5.167       4.938       4.755       4.633       4.520    
        4.352       4.051       3.769       3.586       3.365       3.147       2.979       2.787       2.592       2.424    
        2.238       1.969       1.668       1.267      0.7963      0.5063      0.3562      0.2219      9.9604E-02   0.000    
  39    10.00       9.883       9.769       9.624       9.402       9.156       8.977       8.865       8.725       8.569    
        8.417       8.223       8.068       7.935       7.791       7.669       7.566       7.456       7.322       7.167    
        6.960       6.651       6.233       5.789       5.419       5.135       4.876       4.688       4.593       4.484    
        4.227       3.914       3.738       3.529       3.322       3.167       3.028       2.852       2.664       2.506    
        2.236       1.856       1.501       1.067      0.7107      0.5486      0.4085      0.2660      0.1368       0.000    
  40    10.00       9.874       9.774       9.626       9.423       9.216       9.042       8.894       8.729       8.585    
        8.472       8.283       8.088       7.953       7.820       7.682       7.569       7.482       7.365       7.182    
        6.943       6.589       6.163       5.746       5.368       5.073       4.781       4.633       4.548       4.403    
        4.169       3.935       3.696       3.480       3.334       3.200       3.068       2.904       2.729       2.523    
        2.157       1.743       1.358       1.007      0.7626      0.5956      0.4560      0.3219      0.1580       0.000    
  41    10.00       9.892       9.811       9.668       9.458       9.244       9.078       8.946       8.784       8.613    
        8.478       8.307       8.127       7.999       7.845       7.680       7.583       7.489       7.338       7.138    
        6.892       6.547       6.120       5.714       5.337       4.942       4.672       4.592       4.499       4.391    
        4.206       3.924       3.684       3.513       3.367       3.248       3.102       2.945       2.765       2.443    
        2.015       1.610       1.276       1.017      0.8056      0.6506      0.5013      0.3542      0.1865       0.000    
  42    10.00       9.919       9.830       9.693       9.513       9.308       9.121       8.985       8.839       8.652    
        8.479       8.315       8.163       8.041       7.879       7.704       7.587       7.460       7.295       7.068    
        6.786       6.408       6.036       5.633       5.142       4.791       4.650       4.586       4.507       4.390    
        4.174       3.928       3.703       3.530       3.413       3.285       3.156       2.986       2.699       2.272    
        1.898       1.596       1.305       1.012      0.8162      0.6845      0.5412      0.3689      0.2047       0.000    
  43    10.00       9.936       9.841       9.700       9.523       9.353       9.187       9.035       8.855       8.662    
        8.504       8.339       8.188       8.075       7.924       7.728       7.572       7.427       7.202       6.912    
        6.636       6.273       5.928       5.468       5.005       4.775       4.663       4.590       4.514       4.392    
        4.186       3.961       3.746       3.576       3.464       3.337       3.168       2.926       2.506       2.127    
        1.893       1.626       1.320       1.016      0.8084      0.6865      0.5761      0.3991      0.1870       0.000    
  44    10.00       9.929       9.848       9.702       9.541       9.419       9.252       9.046       8.842       8.682    
        8.524       8.359       8.227       8.108       7.933       7.724       7.545       7.372       7.106       6.815    
        6.485       6.121       5.756       5.296       4.949       4.778       4.683       4.619       4.537       4.382    
        4.172       3.992       3.802       3.645       3.530       3.357       3.132       2.785       2.358       2.107    
        1.893       1.614       1.308       1.031      0.8188      0.6888      0.5767      0.3910      0.1723       0.000    
  45    10.00       9.914       9.817       9.700       9.583       9.427       9.252       9.056       8.854       8.693    
        8.530       8.381       8.265       8.130       7.938       7.715       7.514       7.318       7.030       6.687    
        6.307       5.922       5.528       5.190       4.950       4.806       4.714       4.646       4.543       4.416    
        4.235       4.029       3.860       3.698       3.535       3.352       3.106       2.735       2.365       2.071    
        1.827       1.564       1.278       1.030      0.8449      0.7369      0.5694      0.3390      0.1545       0.000    
  46    10.00       9.897       9.796       9.703       9.570       9.392       9.223       9.063       8.864       8.692    
        8.548       8.410       8.293       8.132       7.928       7.729       7.516       7.259       6.947       6.575    
        6.128       5.744       5.431       5.174       4.992       4.864       4.751       4.660       4.578       4.437    
        4.245       4.067       3.901       3.716       3.553       3.378       3.101       2.673       2.284       2.023    
        1.793       1.540       1.271       1.054      0.9099      0.7709      0.5166      0.2539      0.1104       0.000    
  47    10.00       9.890       9.788       9.659       9.506       9.360       9.214       9.041       8.860       8.707    
        8.575       8.451       8.287       8.113       7.930       7.737       7.503       7.203       6.911       6.460    
        5.974       5.675       5.404       5.203       5.034       4.910       4.797       4.686       4.591       4.445    
        4.244       4.068       3.901       3.726       3.585       3.374       2.988       2.605       2.279       2.000    
        1.799       1.560       1.321       1.110      0.9322      0.7077      0.4253      0.2223      9.2575E-02   0.000    
  48    10.00       9.878       9.756       9.618       9.479       9.349       9.202       9.043       8.876       8.726    
        8.591       8.447       8.268       8.088       7.909       7.718       7.494       7.212       6.848       6.400    
        5.980       5.673       5.410       5.225       5.088       4.936       4.821       4.729       4.611       4.414    
        4.216       4.045       3.891       3.761       3.576       3.297       2.930       2.585       2.276       2.030    
        1.813       1.585       1.370       1.131      0.8650      0.5753      0.3637      0.2157      9.7449E-02   0.000    
  49    10.00       9.867       9.734       9.599       9.485       9.351       9.195       9.039       8.904       8.748    
        8.587       8.405       8.229       8.079       7.875       7.689       7.503       7.187       6.828       6.471    
        6.028       5.686       5.424       5.263       5.102       4.938       4.849       4.761       4.573       4.335    
        4.166       4.029       3.917       3.749       3.533       3.284       2.917       2.572       2.329       2.068    
        1.812       1.603       1.373       1.093      0.7661      0.5131      0.3638      0.2348      0.1205       0.000    
  50    10.00       9.872       9.739       9.602       9.477       9.346       9.207       9.054       8.911       8.772    
        8.575       8.385       8.224       8.021       7.814       7.672       7.495       7.251       6.895       6.541    
        6.090       5.660       5.432       5.268       5.100       4.967       4.860       4.742       4.520       4.294    
        4.154       4.041       3.911       3.736       3.537       3.299       2.927       2.573       2.337       2.102    
        1.859       1.595       1.337       1.036      0.7143      0.5250      0.3915      0.2653      0.1600       0.000    

 HEAD WILL BE SAVED ON UNIT   51 AT END OF TIME STEP  59, STRESS PERIOD    2

 DRAWDOWN WILL BE SAVED ON UNIT   52 AT END OF TIME STEP  59, STRESS PERIOD    2
1
  VOLUMETRIC BUDGET FOR ENTIRE MODEL AT END OF TIME STEP 59 IN STRESS PERIOD   2
  ------------------------------------------------------------------------------

     CUMULATIVE VOLUMES      L**3       RATES FOR THIS TIME STEP      L**3/T
     ------------------                 ------------------------

           IN:                                      IN:
           ---                                      ---
             STORAGE =       29063.2617               STORAGE =         472.0448
       CONSTANT HEAD =       22746.5508         CONSTANT HEAD =         397.1547
               WELLS =           0.0000                 WELLS =           0.0000

            TOTAL IN =       51809.8125              TOTAL IN =         869.1995

          OUT:                                     OUT:
          ----                                     ----
             STORAGE =       1.1143E-02               STORAGE =           0.0000
       CONSTANT HEAD =       22309.7988         CONSTANT HEAD =         369.1997
               WELLS =       29500.0000                 WELLS =         500.0000

           TOTAL OUT =       51809.8086             TOTAL OUT =         869.1997

            IN - OUT =       3.9063E-03              IN - OUT =      -2.4414E-04

 PERCENT DISCREPANCY =           0.00     PERCENT DISCREPANCY =           0.00






          TIME SUMMARY AT END OF TIME STEP  59 IN STRESS PERIOD    2
                    SECONDS     MINUTES      HOURS       DAYS        YEARS
                    -----------------------------------------------------------
   TIME STEP LENGTH  86400.      1440.0      24.000      1.0000     2.73785E-03
 STRESS PERIOD TIME 5.09760E+06  84960.      1416.0      59.000     0.16153    
         TOTAL TIME 5.18400E+06  86400.      1440.0      60.000     0.16427    
1
 
 SOLVING FOR HEAD 

 OUTPUT CONTROL FOR STRESS PERIOD    2   TIME STEP  60
    SAVE HEAD FOR ALL LAYERS
    SAVE DRAWDOWN FOR ALL LAYERS
    SAVE BUDGET
    PRINT HEAD FOR ALL LAYERS
    PRINT BUDGET
 UBDSV1 SAVING "         STORAGE" ON UNIT  53 AT TIME STEP 60, STRESS PERIOD   2
 UBDSV2 SAVING "   CONSTANT HEAD" ON UNIT  53 AT TIME STEP 60, STRESS PERIOD   2
 UBDSV1 SAVING "FLOW RIGHT FACE " ON UNIT  53 AT TIME STEP 60, STRESS PERIOD   2
 UBDSV1 SAVING "FLOW FRONT FACE " ON UNIT  53 AT TIME STEP 60, STRESS PERIOD   2
1
              HEAD IN LAYER   1 AT END OF TIME STEP  60 IN STRESS PERIOD    2
  ---------------------------------------------------------------------------

            1           2           3           4           5           6           7           8           9          10
           11          12          13          14          15          16          17          18          19          20
           21          22          23          24          25          26          27          28          29          30
           31          32          33          34          35          36          37          38          39          40
           41          42          43          44          45          46          47          48          49          50
 ........................................................................................................................
   1    10.00       9.952       9.904       9.847       9.802       9.764       9.714       9.644       9.569       9.499    
        9.344       9.151       9.008       8.850       8.680       8.509       8.350       8.168       7.924       7.681    
        7.515       7.325       7.075       6.822       6.596       6.399       6.118       5.862       5.681       5.492    
        5.329       5.224       5.111       4.983       4.860       4.708       4.544       4.322       4.067       3.788    
        3.429       3.062       2.580       2.052       1.656       1.370       1.156      0.9118      0.5353       0.000    
   2    10.00       9.946       9.895       9.847       9.809       9.773       9.717       9.646       9.576       9.481    
        9.331       9.158       8.997       8.852       8.696       8.519       8.331       8.142       7.915       7.670    
        7.489       7.333       7.067       6.793       6.591       6.369       6.097       5.853       5.645       5.466    
        5.329       5.233       5.138       5.001       4.857       4.706       4.517       4.310       4.063       3.745    
        3.409       3.097       2.591       2.067       1.716       1.461       1.215      0.9418      0.5686       0.000    
   3    10.00       9.938       9.895       9.861       9.825       9.787       9.727       9.643       9.558       9.455    
        9.318       9.165       9.010       8.864       8.678       8.456       8.272       8.109       7.900       7.685    
        7.499       7.277       7.014       6.772       6.553       6.303       6.042       5.801       5.587       5.455    
        5.343       5.251       5.156       5.005       4.854       4.692       4.506       4.274       3.998       3.755    
        3.457       3.032       2.538       2.163       1.864       1.568       1.265      0.9545      0.5390       0.000    
   4    10.00       9.938       9.900       9.870       9.845       9.805       9.735       9.638       9.537       9.435    
        9.304       9.167       9.012       8.828       8.598       8.393       8.261       8.077       7.875       7.707    
        7.452       7.170       6.938       6.723       6.511       6.212       5.923       5.730       5.585       5.472    
        5.372       5.276       5.172       4.997       4.810       4.664       4.466       4.226       3.991       3.778    
        3.440       2.971       2.599       2.283       1.962       1.626       1.262      0.8985      0.4605       0.000    
   5    10.00       9.943       9.908       9.878       9.856       9.814       9.741       9.630       9.517       9.415    
        9.304       9.162       8.963       8.747       8.553       8.390       8.226       8.054       7.865       7.627    
        7.331       7.098       6.906       6.688       6.415       6.104       5.867       5.730       5.612       5.497    
        5.382       5.264       5.145       4.976       4.785       4.608       4.431       4.243       4.030       3.749    
        3.366       3.009       2.691       2.372       2.022       1.631       1.173      0.7564      0.3917       0.000    
   6    10.00       9.952       9.918       9.889       9.858       9.812       9.734       9.614       9.516       9.406    
        9.282       9.105       8.887       8.708       8.528       8.343       8.174       8.021       7.809       7.539    
        7.276       7.053       6.855       6.586       6.290       6.055       5.864       5.736       5.603       5.484    
        5.382       5.253       5.105       4.930       4.745       4.593       4.440       4.269       4.045       3.743    
        3.408       3.064       2.739       2.417       2.037       1.564       1.072      0.7111      0.3662       0.000    
   7    10.00       9.959       9.929       9.898       9.865       9.810       9.705       9.589       9.487       9.351    
        9.223       9.035       8.837       8.652       8.468       8.279       8.114       7.973       7.729       7.441    
        7.203       6.976       6.756       6.494       6.243       6.029       5.861       5.707       5.565       5.473    
        5.369       5.226       5.068       4.894       4.734       4.600       4.458       4.283       4.054       3.780    
        3.447       3.093       2.756       2.402       2.027       1.531       1.025      0.6771      0.3205       0.000    
   8    10.00       9.966       9.939       9.906       9.867       9.778       9.650       9.540       9.412       9.283    
        9.141       8.948       8.780       8.591       8.384       8.199       8.056       7.888       7.656       7.376    
        7.100       6.891       6.708       6.439       6.177       5.987       5.797       5.630       5.534       5.444    
        5.319       5.177       5.044       4.891       4.727       4.588       4.480       4.347       4.124       3.809    
        3.446       3.131       2.817       2.404       1.986       1.432      0.9492      0.6631      0.3069       0.000    
   9    10.00       9.973       9.943       9.905       9.839       9.723       9.586       9.458       9.345       9.212    
        9.044       8.873       8.704       8.523       8.309       8.135       8.001       7.802       7.573       7.287    
        7.047       6.839       6.579       6.303       6.082       5.911       5.722       5.583       5.489       5.386    
        5.273       5.145       5.020       4.886       4.746       4.615       4.507       4.389       4.159       3.818    
        3.484       3.205       2.874       2.477       1.859       1.233      0.9042      0.5607      0.2139       0.000    
  10    10.00       9.973       9.941       9.888       9.788       9.649       9.497       9.397       9.291       9.132    
        8.985       8.816       8.648       8.451       8.253       8.097       7.916       7.709       7.467       7.235    
        6.999       6.680       6.412       6.194       6.006       5.853       5.677       5.536       5.443       5.359    
        5.240       5.102       4.990       4.868       4.744       4.655       4.548       4.411       4.148       3.810    
        3.550       3.305       2.926       2.327       1.611       1.158      0.8205      0.5011      0.2500       0.000    
  11    10.00       9.973       9.931       9.849       9.735       9.579       9.445       9.361       9.234       9.099    
        8.958       8.780       8.578       8.367       8.201       8.031       7.862       7.639       7.403       7.175    
        6.838       6.530       6.316       6.121       5.939       5.769       5.602       5.492       5.415       5.332    
        5.195       5.067       4.976       4.866       4.767       4.668       4.546       4.399       4.151       3.881    
        3.608       3.288       2.875       2.215       1.545       1.088      0.7688      0.5833      0.3223       0.000    
  12    10.00       9.971       9.912       9.806       9.658       9.503       9.396       9.312       9.201       9.079    
        8.924       8.734       8.531       8.345       8.174       7.988       7.792       7.564       7.324       7.012    
        6.679       6.446       6.235       6.036       5.835       5.665       5.549       5.468       5.368       5.260    
        5.138       5.045       4.964       4.879       4.792       4.692       4.563       4.384       4.155       3.913    
        3.619       3.272       2.707       1.963       1.393       1.072      0.8535      0.6190      0.3529       0.000    
  13    10.00       9.961       9.869       9.724       9.570       9.436       9.350       9.276       9.181       9.063    
        8.900       8.702       8.516       8.366       8.169       7.939       7.710       7.462       7.194       6.890    
        6.598       6.345       6.116       5.909       5.717       5.593       5.520       5.404       5.277       5.179    
        5.103       5.030       4.957       4.887       4.803       4.717       4.600       4.396       4.162       3.876    
        3.539       3.099       2.443       1.840       1.426       1.152      0.8972      0.6206      0.3067       0.000    
  14    10.00       9.929       9.798       9.637       9.494       9.389       9.331       9.263       9.172       9.042    
        8.862       8.692       8.540       8.383       8.160       7.888       7.642       7.361       7.063       6.746    
        6.463       6.210       5.984       5.780       5.630       5.545       5.455       5.314       5.206       5.134    
        5.079       5.010       4.950       4.884       4.809       4.740       4.603       4.394       4.148       3.790    
        3.393       2.874       2.369       1.930       1.517       1.196      0.9131      0.6211      0.2767       0.000    
  15    10.00       9.867       9.721       9.578       9.463       9.382       9.318       9.254       9.164       9.043    
        8.883       8.718       8.567       8.346       8.084       7.823       7.549       7.258       6.903       6.565    
        6.302       6.057       5.845       5.689       5.577       5.488       5.377       5.245       5.157       5.106    
        5.043       4.988       4.942       4.879       4.810       4.735       4.589       4.392       4.081       3.695    
        3.284       2.819       2.410       1.957       1.610       1.267      0.9246      0.6153      0.2525       0.000    
  16    10.00       9.845       9.687       9.556       9.456       9.383       9.317       9.257       9.170       9.044    
        8.894       8.736       8.549       8.268       7.981       7.764       7.494       7.105       6.699       6.386    
        6.115       5.911       5.738       5.606       5.482       5.401       5.279       5.173       5.106       5.047    
        5.002       4.968       4.919       4.862       4.800       4.714       4.580       4.341       4.002       3.653    
        3.302       2.854       2.395       1.996       1.669       1.309      0.9221      0.5516      0.2077       0.000    
  17    10.00       9.825       9.665       9.560       9.472       9.397       9.332       9.265       9.170       9.053    
        8.912       8.713       8.457       8.154       7.912       7.707       7.377       6.938       6.527       6.224    
        6.007       5.779       5.587       5.447       5.345       5.242       5.137       5.071       5.017       4.985    
        4.970       4.938       4.888       4.831       4.767       4.674       4.517       4.308       4.036       3.671    
        3.271       2.800       2.375       2.023       1.688       1.319      0.9418      0.5749      0.2431       0.000    
  18    10.00       9.815       9.665       9.574       9.494       9.422       9.358       9.276       9.183       9.057    
        8.888       8.652       8.368       8.110       7.874       7.572       7.188       6.788       6.425       6.127    
        5.860       5.568       5.402       5.285       5.196       5.080       5.012       4.955       4.921       4.927    
        4.921       4.893       4.844       4.782       4.715       4.617       4.467       4.298       4.063       3.727    
        3.209       2.707       2.361       2.025       1.740       1.353      0.9369      0.5639      0.2430       0.000    
  19    10.00       9.823       9.698       9.604       9.519       9.447       9.371       9.296       9.209       9.063    
        8.864       8.612       8.330       8.044       7.731       7.403       7.048       6.662       6.296       5.980    
        5.670       5.415       5.283       5.193       5.066       4.964       4.906       4.855       4.846       4.849    
        4.855       4.839       4.781       4.724       4.670       4.595       4.454       4.270       4.034       3.640    
        3.118       2.692       2.347       2.018       1.698       1.298      0.9003      0.5607      0.2643       0.000    
  20    10.00       9.832       9.726       9.643       9.562       9.476       9.386       9.305       9.218       9.070    
        8.854       8.591       8.263       7.891       7.531       7.264       6.906       6.491       6.170       5.857    
        5.580       5.369       5.209       5.071       4.910       4.838       4.801       4.775       4.779       4.780    
        4.785       4.761       4.715       4.682       4.638       4.562       4.402       4.217       3.946       3.505    
        3.056       2.716       2.317       1.941       1.593       1.198      0.9031      0.5569      0.2470       0.000    
  21    10.00       9.857       9.761       9.678       9.588       9.506       9.408       9.319       9.225       9.058    
        8.824       8.504       8.094       7.658       7.323       7.079       6.743       6.440       6.139       5.800    
        5.537       5.304       5.103       4.842       4.708       4.672       4.616       4.654       4.688       4.686    
        4.682       4.655       4.648       4.632       4.596       4.494       4.337       4.176       3.784       3.325    
        2.990       2.623       2.216       1.865       1.496       1.150      0.8178      0.4907      0.2466       0.000    
  22    10.00       9.888       9.787       9.697       9.610       9.532       9.420       9.306       9.196       9.023    
        8.737       8.334       7.871       7.462       7.175       6.921       6.664       6.445       6.114       5.781    
        5.504       5.171       4.810       4.537       4.437       4.339       4.352       4.457       4.497       4.518    
        4.537       4.535       4.559       4.575       4.542       4.437       4.280       3.984       3.537       3.243    
        2.883       2.487       2.121       1.784       1.469       1.059      0.7097      0.4704      0.2645       0.000    
  23    10.00       9.889       9.792       9.710       9.619       9.516       9.389       9.286       9.189       8.971    
        8.620       8.186       7.764       7.408       7.113       6.898       6.656       6.369       6.052       5.787    
        5.401       4.912       4.525       4.248       3.841       3.841       4.059       4.181       4.270       4.356    
        4.396       4.429       4.466       4.496       4.467       4.363       4.134       3.793       3.429       3.068    
        2.724       2.396       2.044       1.777       1.379      0.9626      0.6903      0.4523      0.2349       0.000    
  24    10.00       9.913       9.804       9.696       9.590       9.473       9.358       9.269       9.161       8.904    
        8.505       8.095       7.745       7.434       7.152       6.870       6.575       6.314       6.062       5.751    
        5.289       4.805       4.345       3.506       2.611       3.133       3.634       3.927       4.091       4.227    
        4.300       4.348       4.394       4.406       4.374       4.239       3.983       3.704       3.304       2.920    
        2.651       2.336       2.003       1.662       1.234      0.8930      0.6639      0.4236      0.1869       0.000    
  25    10.00       9.906       9.778       9.647       9.523       9.416       9.329       9.240       9.106       8.839    
        8.420       8.038       7.770       7.479       7.153       6.860       6.584       6.355       6.121       5.720    
        5.193       4.716       3.980       2.618     -0.2275       2.517       3.309       3.772       4.015       4.157    
        4.242       4.298       4.338       4.337       4.291       4.139       3.867       3.540       3.215       2.891    
        2.584       2.243       1.864       1.504       1.098      0.8197      0.6608      0.4115      0.1526       0.000    
  26    10.00       9.882       9.719       9.571       9.471       9.384       9.298       9.188       9.030       8.701    
        8.311       8.043       7.785       7.496       7.191       6.909       6.649       6.422       6.128       5.702    
        5.237       4.711       4.067       3.330       2.653       3.011       3.482       3.808       4.006       4.137    
        4.217       4.275       4.298       4.284       4.214       4.031       3.726       3.462       3.202       2.854    
        2.536       2.150       1.715       1.329      0.9979      0.8017      0.6246      0.3665      0.1560       0.000    
  27    10.00       9.856       9.682       9.544       9.460       9.346       9.233       9.094       8.882       8.569    
        8.293       8.056       7.794       7.511       7.212       6.989       6.809       6.502       6.132       5.697    
        5.303       4.921       4.403       3.918       3.534       3.593       3.773       3.932       4.059       4.151    
        4.234       4.280       4.284       4.248       4.152       3.940       3.698       3.467       3.164       2.837    
        2.508       2.043       1.545       1.182      0.9519      0.7882      0.5936      0.3872      0.1867       0.000    
  28    10.00       9.837       9.709       9.555       9.411       9.273       9.146       8.982       8.770       8.527    
        8.300       8.088       7.828       7.513       7.247       7.067       6.866       6.529       6.099       5.715    
        5.436       5.150       4.743       4.364       4.120       4.040       4.033       4.082       4.162       4.237    
        4.289       4.299       4.286       4.227       4.099       3.907       3.713       3.440       3.125       2.796    
        2.394       1.956       1.462       1.102      0.9412      0.7848      0.6118      0.4042      0.1875       0.000    
  29    10.00       9.842       9.683       9.520       9.348       9.214       9.071       8.888       8.709       8.516    
        8.313       8.103       7.851       7.584       7.356       7.143       6.875       6.501       6.109       5.810    
        5.572       5.321       4.987       4.650       4.451       4.341       4.273       4.271       4.308       4.332    
        4.333       4.324       4.291       4.209       4.062       3.896       3.715       3.461       3.112       2.695    
        2.327       1.862       1.368       1.086      0.9440      0.7901      0.6069      0.3948      0.1963       0.000    
  30    10.00       9.819       9.659       9.463       9.288       9.165       9.012       8.851       8.713       8.539    
        8.331       8.104       7.874       7.661       7.458       7.218       6.878       6.529       6.215       5.931    
        5.726       5.478       5.173       4.881       4.641       4.543       4.479       4.453       4.429       4.406    
        4.378       4.350       4.296       4.188       4.052       3.921       3.740       3.412       2.980       2.553    
        2.180       1.752       1.377       1.115      0.9653      0.7917      0.5961      0.4137      0.2030       0.000    
  31    10.00       9.795       9.610       9.422       9.265       9.136       8.991       8.849       8.712       8.543    
        8.337       8.109       7.910       7.734       7.543       7.273       6.937       6.634       6.387       6.134    
        5.915       5.636       5.335       5.089       4.844       4.687       4.622       4.558       4.512       4.463    
        4.425       4.373       4.296       4.189       4.058       3.910       3.623       3.255       2.895       2.479    
        2.125       1.699       1.333       1.143      0.9828      0.8195      0.6160      0.4140      0.1963       0.000    
  32    10.00       9.780       9.581       9.419       9.287       9.159       9.007       8.846       8.679       8.520    
        8.317       8.119       7.942       7.749       7.572       7.342       7.081       6.853       6.599       6.338    
        6.118       5.856       5.553       5.288       5.034       4.810       4.723       4.642       4.575       4.506    
        4.452       4.401       4.298       4.164       4.040       3.833       3.477       3.130       2.813       2.433    
        2.021       1.623       1.354       1.208       1.033      0.8263      0.6111      0.3932      0.1962       0.000    
  33    10.00       9.773       9.603       9.473       9.341       9.192       9.010       8.831       8.652       8.470    
        8.301       8.135       7.961       7.776       7.579       7.402       7.211       7.017       6.808       6.554    
        6.298       6.052       5.797       5.488       5.175       4.921       4.792       4.710       4.627       4.540    
        4.476       4.401       4.288       4.159       3.977       3.691       3.325       3.032       2.725       2.282    
        1.907       1.647       1.433       1.260       1.059      0.8423      0.5787      0.3459      0.1559       0.000    
  34    10.00       9.793       9.654       9.532       9.385       9.203       9.012       8.802       8.605       8.453    
        8.302       8.151       7.993       7.803       7.629       7.458       7.293       7.138       6.939       6.680    
        6.438       6.216       5.964       5.642       5.299       5.015       4.848       4.751       4.658       4.560    
        4.475       4.393       4.281       4.118       3.896       3.542       3.185       2.921       2.556       2.165    
        1.934       1.762       1.556       1.333       1.070      0.7638      0.4676      0.2769      0.1148       0.000    
  35    10.00       9.827       9.702       9.579       9.421       9.217       8.998       8.765       8.579       8.448    
        8.347       8.195       8.020       7.818       7.634       7.512       7.391       7.232       7.027       6.780    
        6.549       6.329       6.097       5.736       5.347       5.076       4.894       4.782       4.674       4.562    
        4.476       4.379       4.247       4.034       3.687       3.319       3.081       2.805       2.432       2.196    
        2.035       1.840       1.633       1.415       1.082      0.6496      0.3591      0.2361      0.1199       0.000    
  36    10.00       9.848       9.739       9.621       9.454       9.212       8.945       8.726       8.592       8.491    
        8.354       8.181       8.021       7.843       7.680       7.559       7.444       7.304       7.142       6.914    
        6.675       6.443       6.156       5.769       5.385       5.110       4.937       4.805       4.671       4.558    
        4.461       4.337       4.125       3.807       3.490       3.236       3.012       2.723       2.426       2.270    
        2.106       1.931       1.722       1.441      0.9872      0.5471      0.3374      0.2159      0.1110       0.000    
  37    10.00       9.864       9.780       9.653       9.431       9.166       8.930       8.760       8.648       8.527    
        8.350       8.166       8.028       7.874       7.723       7.608       7.502       7.372       7.201       7.004    
        6.808       6.555       6.198       5.831       5.467       5.156       4.946       4.782       4.659       4.538    
        4.415       4.233       3.917       3.627       3.404       3.185       2.954       2.726       2.514       2.339    
        2.181       1.985       1.747       1.378      0.9051      0.5278      0.3162      0.2009      0.1008       0.000    
  38    10.00       9.884       9.783       9.644       9.414       9.141       8.942       8.815       8.700       8.558    
        8.371       8.177       8.042       7.900       7.751       7.635       7.544       7.431       7.263       7.093    
        6.912       6.623       6.218       5.821       5.462       5.158       4.929       4.746       4.625       4.512    
        4.344       4.044       3.764       3.581       3.360       3.143       2.976       2.784       2.590       2.422    
        2.236       1.968       1.666       1.266      0.7957      0.5060      0.3560      0.2218      9.9542E-02   0.000    
  39    10.00       9.883       9.768       9.623       9.401       9.154       8.974       8.862       8.722       8.565    
        8.413       8.218       8.063       7.929       7.785       7.663       7.560       7.450       7.315       7.160    
        6.952       6.644       6.225       5.781       5.411       5.128       4.869       4.681       4.586       4.478    
        4.220       3.909       3.733       3.524       3.319       3.164       3.025       2.850       2.661       2.504    
        2.234       1.854       1.500       1.066      0.7102      0.5483      0.4082      0.2658      0.1368       0.000    
  40    10.00       9.874       9.773       9.625       9.421       9.214       9.039       8.891       8.725       8.582    
        8.468       8.279       8.084       7.948       7.815       7.677       7.563       7.476       7.359       7.175    
        6.936       6.582       6.156       5.740       5.361       5.066       4.775       4.627       4.542       4.397    
        4.165       3.930       3.692       3.476       3.331       3.197       3.065       2.901       2.727       2.520    
        2.156       1.741       1.357       1.006      0.7621      0.5953      0.4557      0.3217      0.1580       0.000    
  41    10.00       9.891       9.811       9.667       9.457       9.242       9.076       8.943       8.781       8.610    
        8.475       8.303       8.123       7.994       7.840       7.675       7.577       7.484       7.332       7.133    
        6.887       6.541       6.115       5.709       5.331       4.937       4.667       4.587       4.495       4.387    
        4.202       3.920       3.681       3.509       3.364       3.245       3.100       2.943       2.762       2.441    
        2.013       1.609       1.275       1.016      0.8051      0.6502      0.5011      0.3540      0.1864       0.000    
  42    10.00       9.919       9.830       9.692       9.512       9.307       9.119       8.983       8.837       8.649    
        8.476       8.312       8.159       8.037       7.875       7.699       7.581       7.455       7.290       7.063    
        6.781       6.403       6.032       5.629       5.138       4.787       4.646       4.582       4.503       4.386    
        4.170       3.924       3.700       3.527       3.410       3.282       3.153       2.984       2.697       2.270    
        1.896       1.595       1.304       1.012      0.8157      0.6841      0.5410      0.3687      0.2046       0.000    
  43    10.00       9.936       9.841       9.700       9.522       9.352       9.186       9.033       8.853       8.660    
        8.501       8.336       8.185       8.071       7.920       7.724       7.568       7.423       7.198       6.909    
        6.632       6.269       5.925       5.465       5.002       4.771       4.660       4.586       4.511       4.388    
        4.183       3.958       3.743       3.573       3.461       3.334       3.165       2.924       2.504       2.126    
        1.892       1.625       1.319       1.016      0.8080      0.6862      0.5758      0.3989      0.1869       0.000    
  44    10.00       9.929       9.848       9.701       9.540       9.418       9.251       9.044       8.841       8.680    
        8.522       8.357       8.224       8.105       7.930       7.721       7.542       7.369       7.103       6.812    
        6.482       6.118       5.753       5.293       4.946       4.775       4.680       4.616       4.534       4.379    
        4.169       3.989       3.800       3.642       3.527       3.355       3.130       2.783       2.357       2.106    
        1.892       1.613       1.307       1.031      0.8185      0.6885      0.5764      0.3909      0.1722       0.000    
  45    10.00       9.914       9.817       9.699       9.582       9.426       9.251       9.055       8.852       8.691    
        8.528       8.379       8.263       8.127       7.936       7.713       7.511       7.315       7.027       6.685    
        6.305       5.919       5.526       5.187       4.948       4.803       4.711       4.643       4.540       4.414    
        4.232       4.027       3.857       3.696       3.532       3.350       3.104       2.734       2.363       2.070    
        1.826       1.563       1.278       1.030      0.8446      0.7366      0.5692      0.3388      0.1545       0.000    
  46    10.00       9.897       9.796       9.702       9.570       9.392       9.222       9.062       8.863       8.691    
        8.547       8.408       8.291       8.130       7.926       7.727       7.514       7.257       6.945       6.573    
        6.126       5.742       5.428       5.171       4.989       4.862       4.748       4.657       4.576       4.435    
        4.242       4.065       3.899       3.714       3.551       3.376       3.099       2.672       2.283       2.022    
        1.792       1.540       1.271       1.053      0.9096      0.7706      0.5164      0.2539      0.1104       0.000    
  47    10.00       9.890       9.788       9.659       9.505       9.359       9.214       9.040       8.859       8.706    
        8.574       8.450       8.286       8.111       7.928       7.735       7.501       7.202       6.909       6.458    
        5.972       5.673       5.402       5.201       5.032       4.907       4.794       4.683       4.588       4.443    
        4.241       4.066       3.899       3.724       3.583       3.372       2.987       2.604       2.278       2.000    
        1.798       1.559       1.320       1.110      0.9320      0.7074      0.4252      0.2222      9.2550E-02   0.000    
  48    10.00       9.878       9.756       9.618       9.478       9.349       9.201       9.043       8.875       8.725    
        8.590       8.445       8.267       8.087       7.908       7.716       7.493       7.211       6.847       6.398    
        5.978       5.672       5.408       5.223       5.086       4.934       4.819       4.726       4.609       4.411    
        4.214       4.043       3.889       3.760       3.574       3.296       2.929       2.584       2.275       2.030    
        1.812       1.585       1.369       1.131      0.8647      0.5752      0.3636      0.2156      9.7428E-02   0.000    
  49    10.00       9.867       9.734       9.599       9.485       9.351       9.194       9.039       8.904       8.747    
        8.586       8.404       8.228       8.078       7.874       7.688       7.501       7.186       6.826       6.469    
        6.026       5.684       5.423       5.261       5.100       4.935       4.847       4.759       4.571       4.333    
        4.164       4.027       3.916       3.747       3.532       3.283       2.916       2.571       2.329       2.068    
        1.812       1.603       1.373       1.093      0.7660      0.5130      0.3638      0.2348      0.1204       0.000    
  50    10.00       9.872       9.739       9.602       9.477       9.345       9.206       9.053       8.911       8.771    
        8.574       8.384       8.223       8.020       7.813       7.671       7.494       7.249       6.893       6.540    
        6.089       5.658       5.431       5.266       5.098       4.965       4.858       4.740       4.518       4.293    
        4.152       4.040       3.909       3.734       3.535       3.298       2.926       2.572       2.337       2.102    
        1.859       1.595       1.336       1.036      0.7142      0.5249      0.3914      0.2653      0.1600       0.000    

 HEAD WILL BE SAVED ON UNIT   51 AT END OF TIME STEP  60, STRESS PERIOD    2

 DRAWDOWN WILL BE SAVED ON UNIT   52 AT END OF TIME STEP  60, STRESS PERIOD    2
1
  VOLUMETRIC BUDGET FOR ENTIRE MODEL AT END OF TIME STEP 60 IN STRESS PERIOD   2
  ------------------------------------------------------------------------------

     CUMULATIVE VOLUMES      L**3       RATES FOR THIS TIME STEP      L**3/T
     ------------------                 ------------------------

           IN:                                      IN:
           ---                                      ---
             STORAGE =       29534.1289               STORAGE =         470.8664
       CONSTANT HEAD =       23144.6680         CONSTANT HEAD =         398.1180
               WELLS =           0.0000                 WELLS =           0.0000

            TOTAL IN =       52678.7969              TOTAL IN =         868.9844

          OUT:                                     OUT:
          ----                                     ----
             STORAGE =       1.1143E-02               STORAGE =           0.0000
       CONSTANT HEAD =       22678.7832         CONSTANT HEAD =         368.9847
               WELLS =       30000.0000                 WELLS =         500.0000

           TOTAL OUT =       52678.7930             TOTAL OUT =         868.9847

            IN - OUT =       3.9063E-03              IN - OUT =      -3.0518E-04

 PERCENT DISCREPANCY =           0.00     PERCENT DISCREPANCY =           0.00






          TIME SUMMARY AT END OF TIME STEP  60 IN STRESS PERIOD    2
                    SECONDS     MINUTES      HOURS       DAYS        YEARS
                    -----------------------------------------------------------
   TIME STEP LENGTH  86400.      1440.0      24.000      1.0000     2.73785E-03
 STRESS PERIOD TIME 5.18400E+06  86400.      1440.0      60.000     0.16427    
         TOTAL TIME 5.27040E+06  87840.      1464.0      61.000     0.16701    
1
 
 SOLVING FOR HEAD 

 OUTPUT CONTROL FOR STRESS PERIOD    2   TIME STEP  61
    SAVE HEAD FOR ALL LAYERS
    SAVE DRAWDOWN FOR ALL LAYERS
    SAVE BUDGET
    PRINT HEAD FOR ALL LAYERS
    PRINT BUDGET
 UBDSV1 SAVING "         STORAGE" ON UNIT  53 AT TIME STEP 61, STRESS PERIOD   2
 UBDSV2 SAVING "   CONSTANT HEAD" ON UNIT  53 AT TIME STEP 61, STRESS PERIOD   2
 UBDSV1 SAVING "FLOW RIGHT FACE " ON UNIT  53 AT TIME STEP 61, STRESS PERIOD   2
 UBDSV1 SAVING "FLOW FRONT FACE " ON UNIT  53 AT TIME STEP 61, STRESS PERIOD   2
1
              HEAD IN LAYER   1 AT END OF TIME STEP  61 IN STRESS PERIOD    2
  ---------------------------------------------------------------------------

            1           2           3           4           5           6           7           8           9          10
           11          12          13          14          15          16          17          18          19          20
           21          22          23          24          25          26          27          28          29          30
           31          32          33          34          35          36          37          38          39          40
           41          42          43          44          45          46          47          48          49          50
 ........................................................................................................................
   1    10.00       9.952       9.903       9.847       9.802       9.764       9.714       9.644       9.568       9.498    
        9.343       9.150       9.007       8.848       8.678       8.507       8.348       8.165       7.921       7.678    
        7.511       7.322       7.072       6.818       6.592       6.395       6.114       5.858       5.677       5.487    
        5.325       5.220       5.107       4.979       4.856       4.704       4.540       4.318       4.064       3.786    
        3.426       3.060       2.578       2.051       1.655       1.369       1.156      0.9114      0.5351       0.000    
   2    10.00       9.946       9.895       9.847       9.809       9.772       9.716       9.645       9.575       9.481    
        9.330       9.157       8.996       8.851       8.694       8.517       8.328       8.140       7.912       7.667    
        7.486       7.330       7.063       6.789       6.587       6.364       6.093       5.849       5.641       5.462    
        5.325       5.228       5.133       4.996       4.853       4.702       4.513       4.306       4.060       3.742    
        3.406       3.095       2.589       2.066       1.715       1.460       1.214      0.9413      0.5683       0.000    
   3    10.00       9.938       9.895       9.861       9.825       9.787       9.727       9.642       9.557       9.454    
        9.317       9.164       9.009       8.862       8.676       8.454       8.269       8.107       7.897       7.681    
        7.496       7.273       7.010       6.767       6.548       6.299       6.038       5.796       5.582       5.450    
        5.338       5.246       5.151       5.001       4.849       4.688       4.502       4.270       3.995       3.752    
        3.455       3.030       2.537       2.161       1.863       1.567       1.265      0.9540      0.5387       0.000    
   4    10.00       9.938       9.900       9.870       9.845       9.804       9.735       9.637       9.537       9.434    
        9.303       9.165       9.010       8.826       8.596       8.390       8.258       8.075       7.872       7.704    
        7.449       7.166       6.934       6.719       6.507       6.207       5.918       5.725       5.580       5.467    
        5.367       5.270       5.167       4.992       4.805       4.659       4.462       4.222       3.988       3.775    
        3.438       2.969       2.597       2.282       1.961       1.626       1.261      0.8980      0.4603       0.000    
   5    10.00       9.943       9.908       9.878       9.855       9.814       9.740       9.629       9.517       9.414    
        9.302       9.160       8.961       8.745       8.551       8.388       8.223       8.051       7.862       7.624    
        7.327       7.094       6.901       6.683       6.410       6.099       5.862       5.725       5.606       5.491    
        5.376       5.258       5.139       4.970       4.780       4.603       4.427       4.239       4.026       3.746    
        3.363       3.006       2.689       2.370       2.021       1.630       1.172      0.7560      0.3915       0.000    
   6    10.00       9.952       9.918       9.889       9.858       9.812       9.734       9.613       9.515       9.405    
        9.280       9.104       8.885       8.706       8.526       8.340       8.171       8.018       7.805       7.535    
        7.271       7.048       6.851       6.581       6.284       6.049       5.858       5.730       5.597       5.478    
        5.377       5.248       5.099       4.925       4.739       4.588       4.435       4.265       4.041       3.739    
        3.405       3.061       2.736       2.415       2.036       1.563       1.071      0.7107      0.3659       0.000    
   7    10.00       9.959       9.929       9.898       9.864       9.809       9.704       9.588       9.486       9.350    
        9.222       9.034       8.835       8.650       8.465       8.275       8.111       7.970       7.725       7.436    
        7.198       6.971       6.750       6.488       6.237       6.023       5.855       5.701       5.559       5.467    
        5.363       5.220       5.062       4.888       4.729       4.595       4.453       4.278       4.050       3.776    
        3.444       3.090       2.754       2.400       2.025       1.529       1.024      0.6767      0.3203       0.000    
   8    10.00       9.966       9.939       9.905       9.867       9.778       9.649       9.539       9.411       9.282    
        9.139       8.946       8.777       8.588       8.381       8.195       8.053       7.884       7.651       7.371    
        7.094       6.886       6.702       6.433       6.171       5.980       5.790       5.623       5.527       5.437    
        5.312       5.170       5.037       4.885       4.721       4.582       4.474       4.342       4.119       3.805    
        3.442       3.128       2.814       2.402       1.985       1.431      0.9486      0.6627      0.3067       0.000    
   9    10.00       9.973       9.943       9.904       9.839       9.722       9.585       9.456       9.344       9.210    
        9.042       8.870       8.701       8.520       8.305       8.131       7.997       7.797       7.568       7.281    
        7.041       6.833       6.573       6.296       6.074       5.904       5.714       5.575       5.482       5.379    
        5.265       5.138       5.013       4.879       4.739       4.609       4.501       4.383       4.154       3.813    
        3.480       3.202       2.872       2.475       1.858       1.232      0.9036      0.5604      0.2138       0.000    
  10    10.00       9.973       9.941       9.888       9.787       9.648       9.496       9.396       9.289       9.130    
        8.983       8.813       8.645       8.448       8.249       8.092       7.911       7.704       7.461       7.229    
        6.993       6.673       6.404       6.186       5.998       5.844       5.669       5.528       5.435       5.351    
        5.232       5.094       4.983       4.860       4.737       4.648       4.542       4.405       4.142       3.806    
        3.546       3.301       2.923       2.325       1.610       1.157      0.8200      0.5008      0.2499       0.000    
  11    10.00       9.973       9.931       9.848       9.735       9.578       9.444       9.360       9.232       9.097    
        8.956       8.777       8.575       8.363       8.196       8.027       7.857       7.634       7.397       7.169    
        6.830       6.522       6.308       6.112       5.931       5.760       5.593       5.483       5.407       5.323    
        5.187       5.059       4.967       4.859       4.759       4.661       4.540       4.392       4.145       3.876    
        3.603       3.285       2.873       2.213       1.544       1.087      0.7683      0.5829      0.3221       0.000    
  12    10.00       9.971       9.912       9.805       9.657       9.501       9.394       9.310       9.199       9.077    
        8.921       8.731       8.528       8.340       8.170       7.983       7.786       7.558       7.317       7.005    
        6.671       6.437       6.226       6.027       5.826       5.656       5.540       5.458       5.359       5.250    
        5.129       5.036       4.955       4.870       4.784       4.685       4.556       4.377       4.149       3.908    
        3.615       3.268       2.704       1.961       1.392       1.071      0.8528      0.6186      0.3527       0.000    
  13    10.00       9.961       9.869       9.723       9.568       9.435       9.348       9.274       9.179       9.061    
        8.897       8.698       8.512       8.362       8.164       7.933       7.704       7.456       7.187       6.882    
        6.589       6.336       6.107       5.900       5.707       5.583       5.510       5.394       5.267       5.169    
        5.093       5.020       4.948       4.878       4.795       4.709       4.592       4.389       4.156       3.871    
        3.534       3.095       2.440       1.839       1.425       1.151      0.8965      0.6201      0.3064       0.000    
  14    10.00       9.929       9.797       9.636       9.493       9.387       9.329       9.261       9.170       9.040    
        8.858       8.689       8.536       8.379       8.155       7.882       7.635       7.354       7.055       6.737    
        6.453       6.200       5.974       5.769       5.620       5.535       5.445       5.304       5.196       5.123    
        5.069       5.001       4.940       4.875       4.800       4.731       4.595       4.386       4.141       3.784    
        3.388       2.871       2.367       1.928       1.516       1.195      0.9124      0.6207      0.2765       0.000    
  15    10.00       9.867       9.721       9.577       9.461       9.380       9.316       9.251       9.161       9.040    
        8.879       8.714       8.563       8.341       8.078       7.816       7.542       7.250       6.894       6.555    
        6.292       6.046       5.834       5.679       5.566       5.477       5.366       5.235       5.146       5.095    
        5.033       4.978       4.932       4.870       4.800       4.726       4.581       4.384       4.074       3.690    
        3.280       2.815       2.407       1.955       1.608       1.266      0.9239      0.6149      0.2523       0.000    
  16    10.00       9.845       9.686       9.554       9.455       9.381       9.315       9.255       9.167       9.042    
        8.891       8.732       8.545       8.263       7.975       7.757       7.487       7.096       6.690       6.376    
        6.104       5.900       5.727       5.594       5.470       5.390       5.268       5.161       5.095       5.036    
        4.991       4.957       4.909       4.852       4.790       4.704       4.571       4.333       3.996       3.647    
        3.297       2.851       2.392       1.994       1.667       1.308      0.9214      0.5513      0.2076       0.000    
  17    10.00       9.824       9.664       9.558       9.470       9.395       9.330       9.263       9.168       9.050    
        8.909       8.709       8.452       8.148       7.906       7.700       7.368       6.928       6.516       6.213    
        5.996       5.768       5.575       5.435       5.333       5.231       5.125       5.059       5.005       4.974    
        4.959       4.927       4.877       4.821       4.757       4.665       4.508       4.300       4.029       3.665    
        3.266       2.796       2.373       2.021       1.686       1.318      0.9411      0.5745      0.2429       0.000    
  18    10.00       9.814       9.664       9.572       9.492       9.420       9.356       9.274       9.180       9.054    
        8.885       8.648       8.362       8.104       7.867       7.564       7.179       6.777       6.414       6.116    
        5.848       5.556       5.390       5.272       5.184       5.068       5.000       4.943       4.909       4.915    
        4.910       4.882       4.833       4.771       4.704       4.607       4.458       4.290       4.056       3.721    
        3.204       2.704       2.358       2.023       1.739       1.352      0.9362      0.5636      0.2428       0.000    
  19    10.00       9.822       9.697       9.603       9.517       9.445       9.369       9.293       9.207       9.060    
        8.861       8.608       8.325       8.038       7.723       7.395       7.038       6.651       6.285       5.968    
        5.657       5.403       5.270       5.180       5.054       4.951       4.894       4.842       4.834       4.837    
        4.843       4.827       4.770       4.713       4.659       4.584       4.445       4.262       4.026       3.633    
        3.113       2.689       2.344       2.016       1.697       1.297      0.8997      0.5603      0.2641       0.000    
  20    10.00       9.832       9.725       9.642       9.560       9.474       9.384       9.303       9.216       9.067    
        8.850       8.586       8.257       7.884       7.522       7.254       6.895       6.480       6.158       5.844    
        5.567       5.356       5.196       5.058       4.897       4.825       4.788       4.762       4.767       4.768    
        4.773       4.749       4.703       4.671       4.627       4.552       4.392       4.208       3.939       3.499    
        3.051       2.712       2.315       1.939       1.592       1.197      0.9026      0.5566      0.2469       0.000    
  21    10.00       9.856       9.760       9.677       9.587       9.505       9.406       9.317       9.222       9.054    
        8.820       8.498       8.087       7.650       7.314       7.069       6.732       6.429       6.127       5.788    
        5.524       5.291       5.090       4.828       4.695       4.658       4.602       4.641       4.675       4.673    
        4.669       4.643       4.635       4.620       4.585       4.483       4.327       4.167       3.777       3.319    
        2.985       2.620       2.213       1.863       1.494       1.149      0.8173      0.4904      0.2464       0.000    
  22    10.00       9.887       9.786       9.696       9.608       9.531       9.418       9.303       9.193       9.020    
        8.733       8.327       7.863       7.453       7.165       6.910       6.653       6.434       6.102       5.769    
        5.491       5.158       4.796       4.524       4.423       4.325       4.338       4.443       4.483       4.505    
        4.523       4.522       4.546       4.562       4.530       4.426       4.270       3.975       3.530       3.238    
        2.879       2.484       2.119       1.782       1.468       1.058      0.7093      0.4701      0.2643       0.000    
  23    10.00       9.889       9.791       9.709       9.618       9.515       9.387       9.283       9.186       8.967    
        8.615       8.180       7.756       7.399       7.103       6.887       6.645       6.357       6.040       5.774    
        5.388       4.899       4.512       4.234       3.827       3.827       4.045       4.167       4.256       4.342    
        4.382       4.415       4.453       4.483       4.455       4.351       4.124       3.785       3.423       3.063    
        2.720       2.393       2.042       1.776       1.378      0.9619      0.6899      0.4520      0.2348       0.000    
  24    10.00       9.913       9.803       9.695       9.589       9.471       9.356       9.267       9.158       8.900    
        8.499       8.088       7.737       7.425       7.142       6.859       6.563       6.302       6.050       5.738    
        5.276       4.791       4.331       3.492       2.597       3.118       3.620       3.913       4.077       4.212    
        4.286       4.334       4.380       4.392       4.361       4.227       3.973       3.695       3.298       2.916    
        2.647       2.333       2.001       1.660       1.233      0.8924      0.6634      0.4233      0.1868       0.000    
  25    10.00       9.905       9.778       9.646       9.522       9.414       9.327       9.237       9.103       8.835    
        8.414       8.031       7.761       7.470       7.143       6.850       6.572       6.343       6.109       5.708    
        5.179       4.702       3.966       2.603     -0.2432       2.502       3.294       3.757       4.001       4.142    
        4.227       4.284       4.324       4.323       4.278       4.127       3.857       3.532       3.209       2.886    
        2.580       2.240       1.862       1.502       1.097      0.8191      0.6603      0.4113      0.1525       0.000    
  26    10.00       9.881       9.718       9.569       9.469       9.382       9.296       9.185       9.027       8.696    
        8.304       8.036       7.777       7.487       7.181       6.899       6.638       6.410       6.116       5.689    
        5.224       4.697       4.053       3.316       2.638       2.996       3.467       3.793       3.992       4.122    
        4.202       4.260       4.283       4.270       4.201       4.019       3.717       3.454       3.196       2.849    
        2.532       2.148       1.713       1.328      0.9970      0.8011      0.6242      0.3662      0.1559       0.000    
  27    10.00       9.855       9.681       9.542       9.458       9.344       9.230       9.091       8.878       8.564    
        8.286       8.049       7.786       7.503       7.202       6.979       6.798       6.491       6.120       5.684    
        5.290       4.908       4.389       3.903       3.519       3.578       3.758       3.918       4.044       4.136    
        4.219       4.266       4.270       4.235       4.139       3.929       3.688       3.459       3.157       2.832    
        2.504       2.041       1.543       1.181      0.9511      0.7876      0.5932      0.3869      0.1866       0.000    
  28    10.00       9.836       9.708       9.553       9.409       9.270       9.143       8.979       8.766       8.522    
        8.294       8.081       7.821       7.505       7.237       7.057       6.855       6.518       6.087       5.703    
        5.423       5.137       4.729       4.350       4.106       4.025       4.018       4.067       4.147       4.223    
        4.275       4.285       4.272       4.214       4.087       3.896       3.703       3.432       3.118       2.790    
        2.390       1.953       1.460       1.101      0.9403      0.7841      0.6113      0.4039      0.1873       0.000    
  29    10.00       9.842       9.682       9.518       9.346       9.211       9.068       8.885       8.705       8.511    
        8.307       8.096       7.843       7.576       7.347       7.133       6.865       6.490       6.098       5.798    
        5.560       5.308       4.973       4.636       4.436       4.327       4.259       4.256       4.294       4.318    
        4.319       4.311       4.278       4.196       4.050       3.885       3.705       3.452       3.105       2.690    
        2.324       1.859       1.367       1.085      0.9431      0.7895      0.6065      0.3945      0.1962       0.000    
  30    10.00       9.819       9.658       9.461       9.285       9.162       9.008       8.847       8.708       8.534    
        8.325       8.098       7.867       7.653       7.450       7.209       6.868       6.519       6.204       5.919    
        5.714       5.465       5.160       4.867       4.627       4.530       4.465       4.440       4.415       4.392    
        4.365       4.337       4.283       4.175       4.041       3.910       3.730       3.404       2.974       2.549    
        2.177       1.750       1.375       1.114      0.9644      0.7910      0.5956      0.4133      0.2028       0.000    
  31    10.00       9.795       9.609       9.420       9.262       9.134       8.988       8.845       8.708       8.538    
        8.332       8.103       7.903       7.727       7.535       7.265       6.927       6.623       6.376       6.123    
        5.904       5.623       5.322       5.075       4.830       4.673       4.608       4.545       4.498       4.449    
        4.412       4.360       4.283       4.177       4.046       3.899       3.614       3.248       2.890       2.475    
        2.122       1.697       1.331       1.142      0.9820      0.8188      0.6155      0.4137      0.1961       0.000    
  32    10.00       9.779       9.579       9.418       9.284       9.156       9.004       8.842       8.675       8.515    
        8.311       8.113       7.936       7.741       7.564       7.334       7.072       6.844       6.589       6.327    
        6.107       5.844       5.541       5.275       5.021       4.797       4.710       4.629       4.562       4.493    
        4.439       4.388       4.286       4.152       4.029       3.824       3.469       3.124       2.808       2.429    
        2.018       1.621       1.352       1.207       1.032      0.8256      0.6106      0.3929      0.1960       0.000    
  33    10.00       9.772       9.601       9.472       9.338       9.190       9.007       8.827       8.648       8.465    
        8.296       8.129       7.954       7.769       7.572       7.394       7.202       7.008       6.799       6.543    
        6.287       6.041       5.786       5.476       5.163       4.908       4.779       4.698       4.615       4.527    
        4.463       4.389       4.277       4.148       3.967       3.683       3.318       3.026       2.721       2.279    
        1.905       1.645       1.431       1.258       1.058      0.8415      0.5782      0.3456      0.1557       0.000    
  34    10.00       9.793       9.652       9.531       9.383       9.201       9.009       8.798       8.601       8.448    
        8.297       8.145       7.987       7.796       7.622       7.450       7.284       7.130       6.930       6.670    
        6.428       6.205       5.952       5.631       5.287       5.003       4.836       4.739       4.646       4.548    
        4.463       4.382       4.270       4.108       3.886       3.535       3.179       2.916       2.552       2.162    
        1.932       1.760       1.554       1.331       1.069      0.7632      0.4672      0.2767      0.1147       0.000    
  35    10.00       9.827       9.701       9.577       9.420       9.215       8.995       8.762       8.574       8.443    
        8.342       8.189       8.014       7.812       7.626       7.504       7.383       7.224       7.018       6.771    
        6.539       6.319       6.086       5.725       5.336       5.065       4.882       4.771       4.663       4.551    
        4.465       4.369       4.237       4.025       3.680       3.313       3.076       2.801       2.429       2.194    
        2.033       1.838       1.631       1.414       1.081      0.6490      0.3589      0.2359      0.1198       0.000    
  36    10.00       9.847       9.738       9.620       9.452       9.209       8.942       8.722       8.588       8.486    
        8.349       8.176       8.015       7.836       7.673       7.552       7.437       7.297       7.133       6.905    
        6.665       6.433       6.146       5.758       5.374       5.099       4.925       4.794       4.660       4.547    
        4.450       4.327       4.116       3.799       3.484       3.231       3.008       2.719       2.423       2.267    
        2.104       1.929       1.720       1.440      0.9863      0.5467      0.3371      0.2158      0.1109       0.000    
  37    10.00       9.864       9.779       9.652       9.429       9.163       8.927       8.756       8.645       8.523    
        8.346       8.161       8.022       7.868       7.717       7.601       7.495       7.365       7.193       6.996    
        6.800       6.546       6.188       5.821       5.457       5.146       4.936       4.772       4.650       4.529    
        4.406       4.225       3.910       3.621       3.399       3.181       2.950       2.723       2.511       2.337    
        2.179       1.983       1.746       1.377      0.9044      0.5274      0.3159      0.2008      0.1007       0.000    
  38    10.00       9.884       9.782       9.643       9.412       9.139       8.939       8.812       8.697       8.554    
        8.366       8.172       8.036       7.895       7.744       7.629       7.537       7.424       7.256       7.085    
        6.904       6.614       6.209       5.812       5.453       5.149       4.921       4.738       4.617       4.504    
        4.336       4.038       3.758       3.576       3.356       3.139       2.973       2.781       2.587       2.419    
        2.233       1.966       1.665       1.265      0.7952      0.5057      0.3558      0.2217      9.9478E-02   0.000    
  39    10.00       9.883       9.767       9.622       9.399       9.152       8.972       8.859       8.718       8.561    
        8.409       8.213       8.058       7.924       7.779       7.656       7.553       7.443       7.308       7.153    
        6.945       6.636       6.217       5.773       5.403       5.120       4.862       4.674       4.579       4.471    
        4.214       3.904       3.728       3.520       3.315       3.160       3.022       2.847       2.658       2.501    
        2.232       1.853       1.498       1.065      0.7098      0.5480      0.4080      0.2657      0.1367       0.000    
  40    10.00       9.874       9.773       9.624       9.420       9.212       9.037       8.888       8.722       8.578    
        8.464       8.274       8.079       7.943       7.809       7.671       7.557       7.470       7.352       7.169    
        6.930       6.575       6.149       5.733       5.355       5.060       4.769       4.622       4.537       4.392    
        4.160       3.926       3.688       3.473       3.327       3.194       3.062       2.898       2.724       2.518    
        2.154       1.740       1.356       1.006      0.7617      0.5949      0.4555      0.3215      0.1579       0.000    
  41    10.00       9.891       9.810       9.666       9.456       9.240       9.074       8.941       8.778       8.606    
        8.471       8.299       8.118       7.990       7.835       7.670       7.571       7.478       7.327       7.127    
        6.881       6.536       6.109       5.703       5.326       4.932       4.663       4.582       4.490       4.382    
        4.198       3.916       3.677       3.506       3.361       3.242       3.097       2.940       2.760       2.439    
        2.011       1.608       1.274       1.016      0.8047      0.6499      0.5008      0.3538      0.1863       0.000    
  42    10.00       9.919       9.829       9.692       9.511       9.305       9.117       8.981       8.834       8.646    
        8.473       8.308       8.155       8.032       7.870       7.695       7.576       7.450       7.285       7.058    
        6.777       6.399       6.027       5.625       5.133       4.784       4.642       4.578       4.499       4.382    
        4.166       3.921       3.697       3.524       3.407       3.279       3.150       2.981       2.695       2.268    
        1.895       1.594       1.303       1.011      0.8153      0.6838      0.5407      0.3685      0.2045       0.000    
  43    10.00       9.936       9.840       9.699       9.521       9.351       9.184       9.031       8.851       8.657    
        8.498       8.332       8.182       8.068       7.917       7.720       7.563       7.419       7.193       6.905    
        6.629       6.265       5.921       5.461       4.998       4.768       4.656       4.583       4.507       4.385    
        4.180       3.955       3.740       3.570       3.458       3.331       3.163       2.921       2.503       2.125    
        1.891       1.624       1.318       1.015      0.8076      0.6859      0.5756      0.3987      0.1869       0.000    
  44    10.00       9.929       9.848       9.701       9.539       9.417       9.249       9.042       8.839       8.678    
        8.519       8.354       8.221       8.102       7.927       7.718       7.538       7.365       7.099       6.809    
        6.479       6.115       5.750       5.290       4.943       4.772       4.677       4.613       4.530       4.376    
        4.166       3.986       3.797       3.639       3.524       3.352       3.128       2.782       2.355       2.104    
        1.891       1.612       1.307       1.030      0.8181      0.6882      0.5762      0.3907      0.1722       0.000    
  45    10.00       9.914       9.817       9.699       9.581       9.425       9.250       9.054       8.851       8.690    
        8.526       8.377       8.260       8.125       7.934       7.710       7.509       7.312       7.024       6.682    
        6.302       5.917       5.524       5.185       4.945       4.800       4.708       4.640       4.537       4.411    
        4.229       4.024       3.855       3.693       3.530       3.348       3.102       2.732       2.362       2.069    
        1.825       1.563       1.277       1.029      0.8443      0.7363      0.5689      0.3387      0.1544       0.000    
  46    10.00       9.897       9.796       9.702       9.569       9.391       9.221       9.061       8.862       8.690    
        8.545       8.406       8.290       8.128       7.924       7.725       7.511       7.255       6.943       6.571    
        6.124       5.740       5.426       5.169       4.987       4.859       4.746       4.654       4.573       4.432    
        4.239       4.062       3.896       3.711       3.549       3.374       3.097       2.671       2.282       2.021    
        1.791       1.539       1.271       1.053      0.9093      0.7704      0.5162      0.2538      0.1103       0.000    
  47    10.00       9.890       9.788       9.659       9.505       9.359       9.213       9.039       8.858       8.705    
        8.572       8.448       8.284       8.110       7.927       7.733       7.499       7.200       6.908       6.456    
        5.970       5.671       5.400       5.199       5.030       4.905       4.792       4.681       4.586       4.440    
        4.239       4.064       3.897       3.722       3.581       3.370       2.986       2.603       2.277       1.999    
        1.798       1.559       1.320       1.109      0.9317      0.7072      0.4251      0.2222      9.2524E-02   0.000    
  48    10.00       9.878       9.755       9.618       9.478       9.348       9.201       9.042       8.875       8.724    
        8.589       8.444       8.265       8.085       7.906       7.715       7.491       7.209       6.845       6.397    
        5.977       5.670       5.406       5.221       5.084       4.931       4.816       4.724       4.606       4.409    
        4.212       4.041       3.888       3.758       3.573       3.294       2.928       2.583       2.274       2.029    
        1.812       1.584       1.369       1.131      0.8645      0.5750      0.3635      0.2156      9.7405E-02   0.000    
  49    10.00       9.867       9.734       9.599       9.484       9.350       9.194       9.038       8.903       8.746    
        8.585       8.403       8.227       8.076       7.872       7.686       7.500       7.185       6.825       6.468    
        6.025       5.683       5.421       5.259       5.098       4.933       4.844       4.756       4.569       4.331    
        4.162       4.025       3.914       3.745       3.531       3.282       2.915       2.570       2.328       2.067    
        1.811       1.603       1.373       1.092      0.7658      0.5129      0.3637      0.2347      0.1204       0.000    
  50    10.00       9.872       9.739       9.601       9.477       9.345       9.206       9.052       8.910       8.770    
        8.573       8.383       8.221       8.019       7.812       7.670       7.493       7.248       6.892       6.539    
        6.087       5.656       5.429       5.264       5.096       4.963       4.856       4.738       4.516       4.291    
        4.151       4.038       3.908       3.733       3.534       3.296       2.925       2.571       2.336       2.101    
        1.858       1.595       1.336       1.036      0.7140      0.5248      0.3913      0.2652      0.1600       0.000    

 HEAD WILL BE SAVED ON UNIT   51 AT END OF TIME STEP  61, STRESS PERIOD    2

 DRAWDOWN WILL BE SAVED ON UNIT   52 AT END OF TIME STEP  61, STRESS PERIOD    2
1
  VOLUMETRIC BUDGET FOR ENTIRE MODEL AT END OF TIME STEP 61 IN STRESS PERIOD   2
  ------------------------------------------------------------------------------

     CUMULATIVE VOLUMES      L**3       RATES FOR THIS TIME STEP      L**3/T
     ------------------                 ------------------------

           IN:                                      IN:
           ---                                      ---
             STORAGE =       30003.8008               STORAGE =         469.6727
       CONSTANT HEAD =       23543.7578         CONSTANT HEAD =         399.0891
               WELLS =           0.0000                 WELLS =           0.0000

            TOTAL IN =       53547.5586              TOTAL IN =         868.7618

          OUT:                                     OUT:
          ----                                     ----
             STORAGE =       1.1143E-02               STORAGE =           0.0000
       CONSTANT HEAD =       23047.5449         CONSTANT HEAD =         368.7623
               WELLS =       30500.0000                 WELLS =         500.0000

           TOTAL OUT =       53547.5547             TOTAL OUT =         868.7623

            IN - OUT =       3.9063E-03              IN - OUT =      -5.4932E-04

 PERCENT DISCREPANCY =           0.00     PERCENT DISCREPANCY =           0.00






          TIME SUMMARY AT END OF TIME STEP  61 IN STRESS PERIOD    2
                    SECONDS     MINUTES      HOURS       DAYS        YEARS
                    -----------------------------------------------------------
   TIME STEP LENGTH  86400.      1440.0      24.000      1.0000     2.73785E-03
 STRESS PERIOD TIME 5.27040E+06  87840.      1464.0      61.000     0.16701    
         TOTAL TIME 5.35680E+06  89280.      1488.0      62.000     0.16975    
1
 
 SOLVING FOR HEAD 

 OUTPUT CONTROL FOR STRESS PERIOD    2   TIME STEP  62
    SAVE HEAD FOR ALL LAYERS
    SAVE DRAWDOWN FOR ALL LAYERS
    SAVE BUDGET
    PRINT HEAD FOR ALL LAYERS
    PRINT BUDGET
 UBDSV1 SAVING "         STORAGE" ON UNIT  53 AT TIME STEP 62, STRESS PERIOD   2
 UBDSV2 SAVING "   CONSTANT HEAD" ON UNIT  53 AT TIME STEP 62, STRESS PERIOD   2
 UBDSV1 SAVING "FLOW RIGHT FACE " ON UNIT  53 AT TIME STEP 62, STRESS PERIOD   2
 UBDSV1 SAVING "FLOW FRONT FACE " ON UNIT  53 AT TIME STEP 62, STRESS PERIOD   2
1
              HEAD IN LAYER   1 AT END OF TIME STEP  62 IN STRESS PERIOD    2
  ---------------------------------------------------------------------------

            1           2           3           4           5           6           7           8           9          10
           11          12          13          14          15          16          17          18          19          20
           21          22          23          24          25          26          27          28          29          30
           31          32          33          34          35          36          37          38          39          40
           41          42          43          44          45          46          47          48          49          50
 ........................................................................................................................
   1    10.00       9.952       9.903       9.846       9.802       9.764       9.713       9.643       9.567       9.497    
        9.342       9.149       9.006       8.846       8.677       8.505       8.346       8.163       7.918       7.675    
        7.508       7.318       7.068       6.814       6.588       6.390       6.109       5.853       5.672       5.482    
        5.320       5.215       5.102       4.974       4.852       4.700       4.536       4.315       4.061       3.783    
        3.424       3.058       2.576       2.050       1.654       1.368       1.155      0.9109      0.5348       0.000    
   2    10.00       9.946       9.895       9.847       9.809       9.772       9.716       9.645       9.575       9.480    
        9.329       9.155       8.995       8.849       8.692       8.515       8.326       8.137       7.909       7.664    
        7.483       7.327       7.060       6.785       6.583       6.360       6.088       5.844       5.636       5.457    
        5.320       5.223       5.128       4.992       4.848       4.697       4.509       4.303       4.057       3.739    
        3.404       3.092       2.587       2.065       1.714       1.459       1.214      0.9408      0.5680       0.000    
   3    10.00       9.938       9.895       9.861       9.825       9.787       9.726       9.642       9.557       9.454    
        9.316       9.162       9.007       8.861       8.674       8.452       8.267       8.104       7.894       7.678    
        7.493       7.270       7.006       6.763       6.544       6.294       6.033       5.791       5.577       5.445    
        5.333       5.241       5.146       4.996       4.845       4.684       4.498       4.267       3.992       3.749    
        3.452       3.028       2.535       2.160       1.862       1.566       1.264      0.9535      0.5384       0.000    
   4    10.00       9.938       9.900       9.869       9.844       9.804       9.735       9.637       9.536       9.433    
        9.302       9.164       9.009       8.824       8.594       8.388       8.255       8.072       7.869       7.700    
        7.445       7.162       6.930       6.714       6.502       6.202       5.913       5.719       5.575       5.462    
        5.362       5.265       5.161       4.987       4.801       4.655       4.458       4.218       3.984       3.772    
        3.435       2.967       2.595       2.280       1.960       1.625       1.260      0.8975      0.4601       0.000    
   5    10.00       9.943       9.908       9.878       9.855       9.814       9.740       9.628       9.516       9.413    
        9.301       9.159       8.960       8.743       8.548       8.385       8.220       8.049       7.858       7.620    
        7.323       7.089       6.897       6.678       6.405       6.094       5.856       5.719       5.601       5.486    
        5.371       5.253       5.134       4.965       4.775       4.599       4.422       4.234       4.022       3.742    
        3.360       3.004       2.687       2.369       2.019       1.629       1.172      0.7556      0.3913       0.000    
   6    10.00       9.952       9.918       9.889       9.858       9.812       9.733       9.613       9.514       9.404    
        9.279       9.102       8.883       8.703       8.524       8.337       8.168       8.015       7.802       7.531    
        7.267       7.044       6.846       6.575       6.279       6.044       5.852       5.724       5.592       5.472    
        5.371       5.242       5.093       4.919       4.734       4.583       4.430       4.260       4.037       3.735    
        3.402       3.058       2.734       2.413       2.034       1.562       1.070      0.7103      0.3657       0.000    
   7    10.00       9.959       9.929       9.898       9.864       9.809       9.704       9.588       9.486       9.349    
        9.220       9.032       8.833       8.648       8.462       8.272       8.108       7.966       7.721       7.432    
        7.193       6.965       6.745       6.482       6.231       6.017       5.849       5.695       5.552       5.460    
        5.357       5.214       5.056       4.882       4.723       4.589       4.447       4.274       4.045       3.772    
        3.441       3.088       2.752       2.398       2.024       1.528       1.023      0.6763      0.3201       0.000    
   8    10.00       9.966       9.939       9.905       9.866       9.777       9.649       9.538       9.410       9.280    
        9.138       8.944       8.775       8.586       8.378       8.192       8.049       7.880       7.647       7.366    
        7.089       6.880       6.696       6.426       6.164       5.973       5.783       5.616       5.520       5.430    
        5.305       5.163       5.031       4.879       4.715       4.576       4.468       4.337       4.115       3.801    
        3.439       3.125       2.812       2.400       1.983       1.430      0.9479      0.6623      0.3065       0.000    
   9    10.00       9.973       9.943       9.904       9.839       9.721       9.584       9.455       9.343       9.208    
        9.040       8.868       8.699       8.516       8.302       8.127       7.993       7.792       7.563       7.275    
        7.035       6.827       6.566       6.289       6.067       5.896       5.706       5.567       5.474       5.371    
        5.258       5.130       5.005       4.872       4.732       4.602       4.495       4.378       4.149       3.809    
        3.477       3.198       2.869       2.473       1.856       1.231      0.9030      0.5600      0.2136       0.000    
  10    10.00       9.973       9.941       9.888       9.787       9.647       9.495       9.394       9.287       9.128    
        8.981       8.810       8.642       8.444       8.245       8.088       7.906       7.699       7.455       7.222    
        6.986       6.666       6.396       6.178       5.990       5.836       5.661       5.520       5.426       5.343    
        5.224       5.086       4.975       4.853       4.730       4.641       4.535       4.399       4.137       3.801    
        3.542       3.298       2.920       2.323       1.608       1.156      0.8194      0.5004      0.2497       0.000    
  11    10.00       9.973       9.931       9.848       9.734       9.577       9.443       9.358       9.231       9.095    
        8.953       8.774       8.571       8.359       8.192       8.022       7.852       7.628       7.391       7.162    
        6.823       6.514       6.300       6.104       5.922       5.751       5.584       5.474       5.398       5.314    
        5.178       5.051       4.959       4.851       4.751       4.654       4.533       4.386       4.139       3.871    
        3.599       3.281       2.870       2.211       1.542       1.086      0.7677      0.5825      0.3218       0.000    
  12    10.00       9.971       9.912       9.805       9.656       9.500       9.393       9.308       9.197       9.074    
        8.918       8.728       8.524       8.336       8.165       7.978       7.781       7.551       7.310       6.997    
        6.663       6.429       6.217       6.017       5.816       5.646       5.530       5.449       5.350       5.241    
        5.120       5.027       4.947       4.862       4.776       4.677       4.548       4.371       4.143       3.902    
        3.610       3.264       2.701       1.959       1.391       1.070      0.8522      0.6181      0.3524       0.000    
  13    10.00       9.961       9.869       9.723       9.567       9.433       9.346       9.272       9.177       9.058    
        8.894       8.695       8.508       8.357       8.159       7.928       7.698       7.449       7.180       6.874    
        6.581       6.327       6.097       5.890       5.697       5.573       5.501       5.385       5.257       5.159    
        5.083       5.011       4.939       4.869       4.786       4.700       4.585       4.382       4.150       3.865    
        3.529       3.092       2.438       1.837       1.424       1.150      0.8958      0.6196      0.3062       0.000    
  14    10.00       9.929       9.797       9.635       9.491       9.385       9.327       9.259       9.167       9.037    
        8.855       8.685       8.531       8.374       8.149       7.877       7.629       7.347       7.047       6.729    
        6.444       6.190       5.964       5.759       5.609       5.525       5.435       5.293       5.186       5.113    
        5.059       4.991       4.931       4.865       4.791       4.723       4.587       4.379       4.135       3.779    
        3.384       2.867       2.364       1.926       1.515       1.194      0.9117      0.6202      0.2763       0.000    
  15    10.00       9.867       9.720       9.575       9.460       9.378       9.314       9.249       9.159       9.037    
        8.876       8.710       8.559       8.336       8.072       7.810       7.535       7.243       6.886       6.546    
        6.282       6.036       5.824       5.668       5.555       5.466       5.355       5.224       5.136       5.085    
        5.022       4.968       4.922       4.860       4.791       4.717       4.572       4.376       4.067       3.684    
        3.275       2.812       2.404       1.953       1.607       1.265      0.9231      0.6144      0.2521       0.000    
  16    10.00       9.845       9.685       9.553       9.453       9.379       9.312       9.253       9.165       9.039    
        8.887       8.728       8.540       8.257       7.968       7.750       7.479       7.088       6.680       6.365    
        6.093       5.889       5.716       5.583       5.459       5.379       5.257       5.150       5.084       5.025    
        4.981       4.947       4.899       4.842       4.780       4.695       4.562       4.325       3.989       3.641    
        3.292       2.847       2.390       1.992       1.666       1.307      0.9207      0.5509      0.2074       0.000    
  17    10.00       9.824       9.663       9.557       9.468       9.393       9.328       9.260       9.165       9.047    
        8.905       8.705       8.447       8.142       7.899       7.692       7.360       6.919       6.506       6.202    
        5.985       5.756       5.564       5.423       5.321       5.219       5.113       5.047       4.994       4.963    
        4.948       4.916       4.867       4.811       4.747       4.655       4.499       4.292       4.022       3.659    
        3.261       2.792       2.370       2.019       1.685       1.316      0.9404      0.5740      0.2428       0.000    
  18    10.00       9.814       9.663       9.571       9.491       9.418       9.354       9.272       9.178       9.051    
        8.881       8.643       8.357       8.098       7.860       7.556       7.170       6.767       6.403       6.104    
        5.836       5.544       5.377       5.260       5.171       5.055       4.988       4.931       4.897       4.903    
        4.898       4.871       4.822       4.760       4.694       4.597       4.448       4.281       4.048       3.714    
        3.199       2.700       2.355       2.021       1.737       1.350      0.9356      0.5632      0.2427       0.000    
  19    10.00       9.822       9.696       9.601       9.516       9.443       9.367       9.291       9.204       9.057    
        8.857       8.603       8.319       8.031       7.715       7.386       7.028       6.640       6.273       5.957    
        5.645       5.390       5.258       5.167       5.041       4.938       4.881       4.830       4.821       4.825    
        4.831       4.815       4.758       4.702       4.648       4.574       4.435       4.253       4.018       3.627    
        3.109       2.685       2.342       2.014       1.695       1.296      0.8991      0.5600      0.2640       0.000    
  20    10.00       9.831       9.724       9.641       9.559       9.472       9.382       9.300       9.213       9.063    
        8.846       8.582       8.251       7.876       7.514       7.245       6.885       6.469       6.147       5.832    
        5.555       5.343       5.183       5.045       4.884       4.812       4.775       4.750       4.754       4.755    
        4.760       4.737       4.691       4.659       4.616       4.541       4.382       4.199       3.931       3.493    
        3.046       2.709       2.312       1.938       1.590       1.197      0.9020      0.5563      0.2467       0.000    
  21    10.00       9.856       9.759       9.676       9.585       9.503       9.404       9.315       9.220       9.051    
        8.816       8.493       8.080       7.642       7.305       7.059       6.722       6.417       6.115       5.775    
        5.511       5.278       5.077       4.815       4.682       4.645       4.589       4.628       4.662       4.660    
        4.657       4.630       4.623       4.608       4.574       4.473       4.317       4.158       3.769       3.314    
        2.981       2.616       2.211       1.862       1.493       1.148      0.8168      0.4901      0.2463       0.000    
  22    10.00       9.887       9.786       9.695       9.607       9.529       9.416       9.301       9.190       9.016    
        8.728       8.321       7.855       7.444       7.155       6.900       6.642       6.422       6.090       5.756    
        5.478       5.145       4.783       4.510       4.410       4.311       4.325       4.430       4.470       4.491    
        4.510       4.509       4.533       4.550       4.518       4.414       4.260       3.967       3.524       3.232    
        2.875       2.481       2.117       1.781       1.467       1.057      0.7088      0.4698      0.2642       0.000    
  23    10.00       9.888       9.791       9.708       9.616       9.513       9.385       9.281       9.183       8.964    
        8.610       8.173       7.748       7.389       7.093       6.877       6.634       6.346       6.028       5.761    
        5.375       4.886       4.498       4.220       3.813       3.813       4.031       4.153       4.242       4.328    
        4.368       4.401       4.439       4.470       4.442       4.340       4.114       3.777       3.416       3.058    
        2.716       2.390       2.039       1.774       1.377      0.9612      0.6894      0.4517      0.2346       0.000    
  24    10.00       9.913       9.802       9.694       9.588       9.469       9.354       9.264       9.155       8.896    
        8.493       8.081       7.728       7.415       7.132       6.849       6.552       6.290       6.037       5.725    
        5.263       4.778       4.317       3.478       2.582       3.104       3.605       3.898       4.062       4.198    
        4.272       4.320       4.366       4.379       4.348       4.215       3.963       3.687       3.292       2.911    
        2.643       2.330       1.998       1.659       1.232      0.8917      0.6630      0.4230      0.1867       0.000    
  25    10.00       9.905       9.777       9.645       9.520       9.412       9.324       9.234       9.099       8.831    
        8.408       8.023       7.753       7.461       7.133       6.839       6.561       6.332       6.097       5.695    
        5.166       4.688       3.952       2.588     -0.2587       2.487       3.279       3.743       3.986       4.128    
        4.213       4.270       4.310       4.309       4.264       4.115       3.847       3.524       3.202       2.881    
        2.576       2.237       1.859       1.501       1.096      0.8185      0.6599      0.4110      0.1524       0.000    
  26    10.00       9.881       9.717       9.568       9.467       9.380       9.293       9.183       9.023       8.691    
        8.298       8.029       7.769       7.478       7.171       6.888       6.627       6.399       6.104       5.676    
        5.211       4.684       4.039       3.301       2.624       2.981       3.453       3.778       3.977       4.108    
        4.188       4.246       4.269       4.256       4.188       4.008       3.707       3.446       3.189       2.844    
        2.528       2.145       1.711       1.326      0.9961      0.8005      0.6237      0.3659      0.1558       0.000    
  27    10.00       9.855       9.680       9.541       9.456       9.342       9.227       9.087       8.874       8.559    
        8.280       8.042       7.778       7.494       7.193       6.968       6.787       6.480       6.108       5.672    
        5.277       4.894       4.375       3.889       3.505       3.563       3.744       3.903       4.030       4.122    
        4.205       4.252       4.256       4.221       4.127       3.918       3.679       3.450       3.150       2.826    
        2.500       2.038       1.542       1.180      0.9502      0.7869      0.5927      0.3866      0.1865       0.000    
  28    10.00       9.836       9.707       9.552       9.407       9.268       9.140       8.975       8.762       8.517    
        8.288       8.074       7.813       7.496       7.228       7.047       6.845       6.507       6.075       5.690    
        5.410       5.124       4.715       4.336       4.092       4.011       4.004       4.053       4.133       4.209    
        4.261       4.271       4.258       4.201       4.074       3.885       3.693       3.423       3.112       2.785    
        2.386       1.951       1.459       1.100      0.9395      0.7834      0.6108      0.4036      0.1872       0.000    
  29    10.00       9.841       9.681       9.516       9.343       9.209       9.064       8.881       8.700       8.506    
        8.301       8.090       7.836       7.568       7.338       7.124       6.855       6.479       6.086       5.786    
        5.547       5.296       4.960       4.622       4.423       4.313       4.245       4.242       4.280       4.304    
        4.306       4.297       4.264       4.183       4.038       3.874       3.696       3.444       3.098       2.685    
        2.320       1.857       1.365       1.084      0.9423      0.7888      0.6060      0.3941      0.1960       0.000    
  30    10.00       9.818       9.657       9.459       9.283       9.159       9.005       8.843       8.704       8.529    
        8.320       8.091       7.859       7.646       7.441       7.200       6.858       6.508       6.193       5.907    
        5.701       5.453       5.147       4.854       4.613       4.516       4.452       4.426       4.402       4.378    
        4.351       4.324       4.270       4.163       4.029       3.899       3.720       3.396       2.968       2.544    
        2.173       1.748       1.374       1.113      0.9635      0.7904      0.5951      0.4130      0.2026       0.000    
  31    10.00       9.794       9.608       9.418       9.260       9.131       8.985       8.842       8.703       8.533    
        8.326       8.096       7.896       7.719       7.527       7.256       6.918       6.613       6.365       6.111    
        5.892       5.611       5.309       5.062       4.817       4.659       4.595       4.532       4.485       4.436    
        4.399       4.347       4.271       4.165       4.035       3.889       3.605       3.241       2.884       2.471    
        2.119       1.695       1.330       1.141      0.9811      0.8180      0.6149      0.4134      0.1960       0.000    
  32    10.00       9.778       9.578       9.416       9.282       9.153       9.001       8.838       8.670       8.510    
        8.306       8.107       7.929       7.734       7.556       7.326       7.063       6.834       6.578       6.316    
        6.095       5.833       5.528       5.263       5.008       4.784       4.697       4.616       4.549       4.480    
        4.427       4.376       4.274       4.141       4.018       3.814       3.461       3.117       2.803       2.425    
        2.016       1.619       1.351       1.206       1.031      0.8249      0.6101      0.3926      0.1959       0.000    
  33    10.00       9.772       9.600       9.470       9.336       9.187       9.004       8.823       8.644       8.460    
        8.291       8.124       7.948       7.762       7.564       7.386       7.194       6.999       6.789       6.533    
        6.276       6.030       5.774       5.464       5.150       4.896       4.766       4.685       4.602       4.515    
        4.452       4.377       4.266       4.137       3.957       3.674       3.311       3.021       2.716       2.275    
        1.903       1.643       1.430       1.257       1.057      0.8408      0.5777      0.3453      0.1556       0.000    
  34    10.00       9.792       9.651       9.529       9.381       9.198       9.006       8.795       8.597       8.444    
        8.292       8.139       7.981       7.789       7.615       7.442       7.276       7.121       6.921       6.661    
        6.418       6.194       5.941       5.619       5.275       4.990       4.824       4.727       4.634       4.536    
        4.452       4.370       4.259       4.098       3.877       3.527       3.174       2.911       2.549       2.159    
        1.929       1.758       1.553       1.330       1.068      0.7625      0.4668      0.2765      0.1146       0.000    
  35    10.00       9.826       9.700       9.576       9.418       9.212       8.992       8.758       8.570       8.439    
        8.337       8.184       8.008       7.805       7.619       7.497       7.375       7.216       7.009       6.761    
        6.530       6.309       6.075       5.714       5.324       5.053       4.871       4.759       4.651       4.540    
        4.454       4.358       4.226       4.015       3.672       3.307       3.071       2.796       2.426       2.192    
        2.031       1.836       1.630       1.413       1.080      0.6484      0.3586      0.2357      0.1197       0.000    
  36    10.00       9.847       9.737       9.619       9.451       9.207       8.939       8.718       8.583       8.482    
        8.344       8.170       8.009       7.830       7.667       7.545       7.429       7.289       7.125       6.897    
        6.656       6.423       6.136       5.748       5.363       5.088       4.915       4.783       4.650       4.537    
        4.440       4.317       4.107       3.792       3.478       3.226       3.004       2.716       2.421       2.265    
        2.101       1.927       1.718       1.438      0.9855      0.5462      0.3369      0.2156      0.1108       0.000    
  37    10.00       9.863       9.778       9.651       9.427       9.161       8.924       8.753       8.641       8.519    
        8.341       8.156       8.017       7.862       7.711       7.594       7.488       7.358       7.186       6.988    
        6.791       6.536       6.178       5.811       5.447       5.136       4.926       4.762       4.640       4.519    
        4.397       4.216       3.903       3.615       3.394       3.177       2.947       2.720       2.508       2.334    
        2.177       1.981       1.744       1.376      0.9037      0.5270      0.3157      0.2007      0.1006       0.000    
  38    10.00       9.884       9.782       9.642       9.411       9.136       8.936       8.809       8.693       8.550    
        8.362       8.167       8.031       7.889       7.738       7.623       7.531       7.417       7.249       7.077    
        6.896       6.606       6.200       5.803       5.444       5.140       4.912       4.730       4.609       4.496    
        4.328       4.031       3.753       3.571       3.352       3.136       2.969       2.778       2.584       2.417    
        2.231       1.964       1.663       1.264      0.7946      0.5053      0.3555      0.2215      9.9412E-02   0.000    
  39    10.00       9.883       9.767       9.621       9.398       9.149       8.969       8.856       8.715       8.558    
        8.405       8.209       8.053       7.918       7.773       7.650       7.547       7.437       7.301       7.146    
        6.937       6.628       6.209       5.765       5.396       5.113       4.855       4.668       4.572       4.464    
        4.208       3.899       3.723       3.516       3.311       3.157       3.019       2.844       2.656       2.499    
        2.230       1.851       1.497       1.065      0.7093      0.5476      0.4077      0.2655      0.1366       0.000    
  40    10.00       9.873       9.772       9.623       9.418       9.210       9.035       8.886       8.719       8.575    
        8.460       8.270       8.074       7.937       7.803       7.665       7.551       7.464       7.346       7.162    
        6.923       6.569       6.143       5.726       5.348       5.053       4.764       4.616       4.531       4.387    
        4.155       3.921       3.684       3.469       3.324       3.191       3.059       2.896       2.722       2.516    
        2.152       1.738       1.355       1.005      0.7612      0.5946      0.4552      0.3213      0.1578       0.000    
  41    10.00       9.891       9.810       9.666       9.455       9.238       9.071       8.938       8.775       8.603    
        8.467       8.295       8.114       7.985       7.830       7.664       7.566       7.472       7.321       7.121    
        6.875       6.530       6.104       5.697       5.320       4.927       4.658       4.578       4.486       4.378    
        4.193       3.912       3.674       3.503       3.358       3.239       3.094       2.937       2.757       2.436    
        2.010       1.607       1.273       1.015      0.8042      0.6495      0.5005      0.3536      0.1862       0.000    
  42    10.00       9.918       9.829       9.691       9.509       9.304       9.115       8.978       8.831       8.643    
        8.469       8.304       8.151       8.028       7.866       7.690       7.571       7.445       7.280       7.053    
        6.772       6.394       6.023       5.620       5.129       4.780       4.638       4.574       4.495       4.378    
        4.163       3.917       3.694       3.521       3.404       3.276       3.148       2.978       2.692       2.267    
        1.894       1.593       1.303       1.011      0.8148      0.6834      0.5404      0.3683      0.2044       0.000    
  43    10.00       9.936       9.840       9.698       9.520       9.350       9.182       9.029       8.849       8.655    
        8.495       8.329       8.178       8.064       7.913       7.716       7.559       7.414       7.189       6.901    
        6.625       6.262       5.918       5.458       4.995       4.764       4.652       4.579       4.504       4.381    
        4.176       3.952       3.737       3.567       3.455       3.328       3.160       2.919       2.501       2.123    
        1.890       1.623       1.318       1.015      0.8072      0.6856      0.5753      0.3985      0.1868       0.000    
  44    10.00       9.929       9.847       9.700       9.539       9.416       9.248       9.041       8.837       8.676    
        8.517       8.352       8.219       8.099       7.923       7.714       7.535       7.362       7.096       6.805    
        6.476       6.112       5.747       5.287       4.940       4.769       4.674       4.610       4.527       4.373    
        4.163       3.983       3.794       3.636       3.521       3.349       3.125       2.780       2.354       2.103    
        1.890       1.611       1.306       1.030      0.8177      0.6879      0.5759      0.3905      0.1721       0.000    
  45    10.00       9.914       9.817       9.699       9.581       9.425       9.249       9.052       8.849       8.688    
        8.524       8.375       8.258       8.123       7.931       7.708       7.506       7.310       7.022       6.679    
        6.300       5.914       5.521       5.182       4.942       4.798       4.705       4.637       4.534       4.408    
        4.226       4.021       3.852       3.690       3.528       3.346       3.100       2.730       2.361       2.068    
        1.825       1.562       1.277       1.029      0.8439      0.7360      0.5687      0.3386      0.1543       0.000    
  46    10.00       9.897       9.795       9.702       9.569       9.390       9.221       9.060       8.861       8.689    
        8.544       8.405       8.288       8.126       7.922       7.723       7.509       7.252       6.941       6.569    
        6.122       5.738       5.424       5.167       4.984       4.857       4.743       4.652       4.570       4.429    
        4.237       4.060       3.894       3.709       3.547       3.372       3.096       2.670       2.281       2.020    
        1.791       1.538       1.270       1.052      0.9089      0.7701      0.5161      0.2537      0.1103       0.000    
  47    10.00       9.890       9.788       9.658       9.504       9.358       9.212       9.038       8.857       8.703    
        8.571       8.447       8.283       8.108       7.925       7.732       7.498       7.198       6.906       6.454    
        5.968       5.669       5.398       5.197       5.027       4.902       4.789       4.678       4.583       4.438    
        4.237       4.062       3.895       3.720       3.579       3.369       2.984       2.602       2.276       1.998    
        1.797       1.558       1.319       1.109      0.9314      0.7070      0.4250      0.2221      9.2497E-02   0.000    
  48    10.00       9.878       9.755       9.617       9.477       9.348       9.200       9.041       8.874       8.723    
        8.588       8.443       8.264       8.084       7.905       7.714       7.490       7.208       6.844       6.395    
        5.975       5.668       5.404       5.219       5.082       4.929       4.814       4.722       4.604       4.407    
        4.210       4.039       3.886       3.756       3.571       3.293       2.927       2.582       2.273       2.028    
        1.811       1.584       1.369       1.131      0.8643      0.5749      0.3634      0.2155      9.7382E-02   0.000    
  49    10.00       9.867       9.734       9.598       9.484       9.350       9.193       9.037       8.902       8.745    
        8.584       8.402       8.226       8.075       7.871       7.685       7.499       7.183       6.824       6.466    
        6.023       5.681       5.419       5.257       5.096       4.931       4.842       4.754       4.567       4.329    
        4.160       4.023       3.912       3.744       3.529       3.281       2.914       2.569       2.327       2.067    
        1.811       1.602       1.372       1.092      0.7656      0.5127      0.3636      0.2347      0.1204       0.000    
  50    10.00       9.872       9.738       9.601       9.476       9.344       9.205       9.051       8.909       8.769    
        8.572       8.382       8.220       8.018       7.811       7.668       7.491       7.247       6.891       6.537    
        6.086       5.655       5.427       5.262       5.094       4.961       4.854       4.736       4.514       4.289    
        4.149       4.036       3.906       3.731       3.533       3.295       2.924       2.571       2.335       2.101    
        1.858       1.594       1.336       1.036      0.7139      0.5247      0.3913      0.2652      0.1599       0.000    

 HEAD WILL BE SAVED ON UNIT   51 AT END OF TIME STEP  62, STRESS PERIOD    2

 DRAWDOWN WILL BE SAVED ON UNIT   52 AT END OF TIME STEP  62, STRESS PERIOD    2
1
  VOLUMETRIC BUDGET FOR ENTIRE MODEL AT END OF TIME STEP 62 IN STRESS PERIOD   2
  ------------------------------------------------------------------------------

     CUMULATIVE VOLUMES      L**3       RATES FOR THIS TIME STEP      L**3/T
     ------------------                 ------------------------

           IN:                                      IN:
           ---                                      ---
             STORAGE =       30472.2656               STORAGE =         468.4655
       CONSTANT HEAD =       23943.8242         CONSTANT HEAD =         400.0671
               WELLS =           0.0000                 WELLS =           0.0000

            TOTAL IN =       54416.0898              TOTAL IN =         868.5327

          OUT:                                     OUT:
          ----                                     ----
             STORAGE =       1.1143E-02               STORAGE =           0.0000
       CONSTANT HEAD =       23416.0781         CONSTANT HEAD =         368.5325
               WELLS =       31000.0000                 WELLS =         500.0000

           TOTAL OUT =       54416.0898             TOTAL OUT =         868.5325

            IN - OUT =           0.0000              IN - OUT =       1.8311E-04

 PERCENT DISCREPANCY =           0.00     PERCENT DISCREPANCY =           0.00






          TIME SUMMARY AT END OF TIME STEP  62 IN STRESS PERIOD    2
                    SECONDS     MINUTES      HOURS       DAYS        YEARS
                    -----------------------------------------------------------
   TIME STEP LENGTH  86400.      1440.0      24.000      1.0000     2.73785E-03
 STRESS PERIOD TIME 5.35680E+06  89280.      1488.0      62.000     0.16975    
         TOTAL TIME 5.44320E+06  90720.      1512.0      63.000     0.17248    
1
 
 SOLVING FOR HEAD 

 OUTPUT CONTROL FOR STRESS PERIOD    2   TIME STEP  63
    SAVE HEAD FOR ALL LAYERS
    SAVE DRAWDOWN FOR ALL LAYERS
    SAVE BUDGET
    PRINT HEAD FOR ALL LAYERS
    PRINT BUDGET
 UBDSV1 SAVING "         STORAGE" ON UNIT  53 AT TIME STEP 63, STRESS PERIOD   2
 UBDSV2 SAVING "   CONSTANT HEAD" ON UNIT  53 AT TIME STEP 63, STRESS PERIOD   2
 UBDSV1 SAVING "FLOW RIGHT FACE " ON UNIT  53 AT TIME STEP 63, STRESS PERIOD   2
 UBDSV1 SAVING "FLOW FRONT FACE " ON UNIT  53 AT TIME STEP 63, STRESS PERIOD   2
1
              HEAD IN LAYER   1 AT END OF TIME STEP  63 IN STRESS PERIOD    2
  ---------------------------------------------------------------------------

            1           2           3           4           5           6           7           8           9          10
           11          12          13          14          15          16          17          18          19          20
           21          22          23          24          25          26          27          28          29          30
           31          32          33          34          35          36          37          38          39          40
           41          42          43          44          45          46          47          48          49          50
 ........................................................................................................................
   1    10.00       9.951       9.903       9.846       9.801       9.763       9.713       9.643       9.567       9.496    
        9.342       9.148       9.004       8.845       8.675       8.503       8.343       8.160       7.915       7.672    
        7.505       7.315       7.065       6.811       6.583       6.386       6.105       5.848       5.667       5.478    
        5.315       5.210       5.097       4.970       4.847       4.695       4.532       4.311       4.058       3.780    
        3.421       3.056       2.575       2.049       1.653       1.368       1.154      0.9104      0.5345       0.000    
   2    10.00       9.946       9.895       9.846       9.808       9.772       9.715       9.644       9.574       9.479    
        9.328       9.154       8.993       8.847       8.690       8.513       8.324       8.135       7.907       7.661    
        7.479       7.323       7.056       6.781       6.579       6.356       6.084       5.839       5.631       5.452    
        5.315       5.218       5.123       4.987       4.844       4.693       4.505       4.299       4.053       3.736    
        3.401       3.090       2.586       2.064       1.713       1.459       1.213      0.9403      0.5677       0.000    
   3    10.00       9.938       9.894       9.861       9.825       9.786       9.726       9.641       9.556       9.453    
        9.315       9.161       9.006       8.859       8.672       8.449       8.264       8.101       7.891       7.675    
        7.489       7.266       7.002       6.759       6.540       6.289       6.028       5.786       5.572       5.439    
        5.328       5.236       5.141       4.991       4.840       4.679       4.493       4.263       3.988       3.746    
        3.449       3.025       2.533       2.159       1.860       1.565       1.263      0.9530      0.5381       0.000    
   4    10.00       9.938       9.899       9.869       9.844       9.804       9.734       9.636       9.535       9.432    
        9.301       9.163       9.007       8.822       8.592       8.385       8.253       8.069       7.866       7.697    
        7.442       7.158       6.926       6.710       6.497       6.197       5.907       5.714       5.569       5.456    
        5.356       5.260       5.156       4.982       4.796       4.650       4.453       4.215       3.981       3.769    
        3.432       2.964       2.593       2.279       1.958       1.624       1.259      0.8970      0.4598       0.000    
   5    10.00       9.943       9.907       9.878       9.855       9.813       9.740       9.628       9.515       9.412    
        9.300       9.158       8.958       8.741       8.546       8.383       8.217       8.045       7.855       7.617    
        7.319       7.085       6.892       6.674       6.400       6.088       5.851       5.714       5.595       5.480    
        5.365       5.247       5.129       4.960       4.770       4.594       4.417       4.230       4.018       3.739    
        3.357       3.002       2.684       2.367       2.018       1.628       1.171      0.7551      0.3911       0.000    
   6    10.00       9.952       9.918       9.889       9.857       9.811       9.733       9.612       9.513       9.403    
        9.278       9.101       8.881       8.701       8.521       8.334       8.165       8.012       7.798       7.527    
        7.263       7.039       6.841       6.570       6.273       6.038       5.846       5.718       5.586       5.466    
        5.365       5.236       5.088       4.914       4.729       4.578       4.426       4.256       4.033       3.732    
        3.399       3.056       2.732       2.411       2.033       1.561       1.070      0.7098      0.3655       0.000    
   7    10.00       9.959       9.928       9.898       9.864       9.809       9.703       9.587       9.485       9.348    
        9.219       9.030       8.830       8.645       8.459       8.269       8.104       7.962       7.717       7.427    
        7.188       6.960       6.739       6.477       6.225       6.011       5.843       5.688       5.546       5.454    
        5.350       5.208       5.050       4.876       4.718       4.584       4.442       4.269       4.041       3.768    
        3.438       3.085       2.749       2.396       2.022       1.527       1.023      0.6758      0.3199       0.000    
   8    10.00       9.966       9.939       9.905       9.866       9.777       9.648       9.537       9.409       9.279    
        9.136       8.942       8.772       8.583       8.375       8.188       8.045       7.876       7.642       7.361    
        7.083       6.874       6.690       6.420       6.157       5.966       5.776       5.609       5.513       5.423    
        5.299       5.156       5.024       4.872       4.708       4.571       4.463       4.331       4.110       3.797    
        3.435       3.122       2.809       2.398       1.982       1.429      0.9473      0.6618      0.3063       0.000    
   9    10.00       9.973       9.943       9.904       9.838       9.721       9.583       9.454       9.341       9.207    
        9.038       8.865       8.696       8.513       8.298       8.123       7.989       7.788       7.557       7.270    
        7.029       6.820       6.559       6.281       6.059       5.889       5.699       5.560       5.466       5.363    
        5.250       5.123       4.998       4.865       4.725       4.596       4.489       4.372       4.143       3.805    
        3.473       3.195       2.866       2.470       1.855       1.231      0.9024      0.5596      0.2135       0.000    
  10    10.00       9.973       9.941       9.888       9.786       9.646       9.493       9.393       9.286       9.126    
        8.978       8.808       8.638       8.440       8.241       8.084       7.901       7.694       7.449       7.216    
        6.980       6.658       6.388       6.170       5.982       5.828       5.652       5.512       5.418       5.335    
        5.216       5.079       4.967       4.845       4.722       4.635       4.529       4.393       4.131       3.796    
        3.538       3.294       2.917       2.320       1.607       1.155      0.8188      0.5001      0.2495       0.000    
  11    10.00       9.973       9.931       9.847       9.733       9.576       9.441       9.356       9.229       9.092    
        8.950       8.771       8.568       8.355       8.187       8.017       7.846       7.622       7.385       7.155    
        6.816       6.506       6.292       6.095       5.913       5.742       5.575       5.466       5.389       5.306    
        5.170       5.042       4.951       4.843       4.744       4.646       4.526       4.380       4.134       3.866    
        3.595       3.277       2.867       2.208       1.541       1.086      0.7671      0.5821      0.3216       0.000    
  12    10.00       9.971       9.911       9.804       9.655       9.499       9.391       9.307       9.195       9.072    
        8.916       8.724       8.520       8.332       8.161       7.973       7.775       7.545       7.304       6.990    
        6.654       6.420       6.209       6.008       5.807       5.637       5.521       5.440       5.341       5.232    
        5.111       5.018       4.938       4.854       4.768       4.669       4.541       4.364       4.137       3.897    
        3.606       3.260       2.698       1.957       1.390       1.069      0.8515      0.6176      0.3522       0.000    
  13    10.00       9.961       9.868       9.722       9.566       9.431       9.345       9.270       9.175       9.056    
        8.891       8.691       8.504       8.353       8.154       7.923       7.692       7.443       7.173       6.866    
        6.572       6.318       6.088       5.880       5.687       5.563       5.491       5.375       5.247       5.150    
        5.074       5.002       4.930       4.860       4.778       4.692       4.577       4.375       4.144       3.860    
        3.525       3.088       2.435       1.835       1.422       1.149      0.8951      0.6192      0.3060       0.000    
  14    10.00       9.928       9.796       9.634       9.490       9.383       9.325       9.256       9.165       9.034    
        8.852       8.681       8.527       8.370       8.144       7.871       7.623       7.340       7.040       6.720    
        6.435       6.181       5.954       5.749       5.599       5.514       5.424       5.283       5.176       5.103    
        5.049       4.981       4.921       4.856       4.782       4.714       4.579       4.372       4.128       3.773    
        3.379       2.864       2.362       1.924       1.513       1.193      0.9109      0.6197      0.2761       0.000    
  15    10.00       9.866       9.719       9.574       9.458       9.376       9.312       9.247       9.156       9.034    
        8.873       8.706       8.554       8.331       8.067       7.804       7.528       7.235       6.877       6.537    
        6.272       6.026       5.813       5.657       5.545       5.455       5.345       5.214       5.125       5.074    
        5.012       4.958       4.912       4.851       4.782       4.708       4.564       4.369       4.061       3.678    
        3.270       2.808       2.402       1.951       1.605       1.264      0.9224      0.6139      0.2519       0.000    
  16    10.00       9.844       9.684       9.551       9.451       9.377       9.310       9.251       9.162       9.036    
        8.884       8.724       8.536       8.252       7.962       7.743       7.472       7.079       6.671       6.355    
        6.083       5.878       5.705       5.572       5.448       5.368       5.246       5.139       5.073       5.015    
        4.970       4.937       4.889       4.832       4.771       4.686       4.554       4.317       3.982       3.636    
        3.287       2.843       2.387       1.990       1.664       1.306      0.9200      0.5504      0.2073       0.000    
  17    10.00       9.823       9.662       9.556       9.466       9.391       9.326       9.258       9.162       9.044    
        8.902       8.701       8.442       8.136       7.892       7.685       7.352       6.910       6.496       6.192    
        5.974       5.745       5.552       5.411       5.309       5.207       5.102       5.036       4.982       4.952    
        4.937       4.905       4.856       4.801       4.737       4.645       4.490       4.283       4.014       3.653    
        3.256       2.789       2.367       2.017       1.683       1.315      0.9396      0.5736      0.2426       0.000    
  18    10.00       9.813       9.662       9.570       9.489       9.416       9.351       9.269       9.175       9.048    
        8.877       8.639       8.351       8.091       7.853       7.548       7.161       6.757       6.392       6.093    
        5.825       5.532       5.365       5.248       5.159       5.043       4.976       4.919       4.886       4.892    
        4.887       4.860       4.811       4.750       4.684       4.587       4.439       4.273       4.040       3.708    
        3.194       2.697       2.352       2.019       1.735       1.349      0.9348      0.5628      0.2425       0.000    
  19    10.00       9.821       9.695       9.600       9.514       9.441       9.365       9.289       9.201       9.054    
        8.853       8.598       8.313       8.025       7.708       7.377       7.019       6.630       6.262       5.945    
        5.633       5.378       5.245       5.155       5.029       4.926       4.869       4.818       4.809       4.813    
        4.819       4.804       4.747       4.691       4.638       4.564       4.426       4.244       4.010       3.621    
        3.104       2.682       2.339       2.012       1.694       1.295      0.8985      0.5596      0.2638       0.000    
  20    10.00       9.831       9.723       9.640       9.557       9.471       9.380       9.298       9.210       9.060    
        8.842       8.577       8.245       7.869       7.505       7.236       6.875       6.458       6.135       5.820    
        5.542       5.331       5.170       5.032       4.871       4.800       4.763       4.737       4.742       4.743    
        4.748       4.725       4.679       4.648       4.605       4.531       4.372       4.190       3.923       3.487    
        3.042       2.705       2.310       1.936       1.589       1.196      0.9013      0.5559      0.2466       0.000    
  21    10.00       9.855       9.759       9.675       9.584       9.501       9.402       9.313       9.217       9.048    
        8.812       8.487       8.073       7.633       7.295       7.050       6.711       6.406       6.104       5.763    
        5.499       5.265       5.064       4.802       4.669       4.632       4.576       4.615       4.649       4.647    
        4.644       4.617       4.611       4.596       4.562       4.462       4.307       4.149       3.762       3.308    
        2.976       2.613       2.208       1.860       1.492       1.148      0.8162      0.4898      0.2461       0.000    
  22    10.00       9.886       9.785       9.694       9.606       9.528       9.414       9.299       9.187       9.013    
        8.723       8.315       7.848       7.435       7.145       6.889       6.631       6.411       6.078       5.744    
        5.466       5.132       4.770       4.497       4.396       4.298       4.312       4.417       4.457       4.478    
        4.496       4.496       4.521       4.537       4.506       4.403       4.250       3.958       3.517       3.227    
        2.870       2.478       2.114       1.779       1.465       1.056      0.7084      0.4695      0.2640       0.000    
  23    10.00       9.888       9.790       9.707       9.615       9.511       9.383       9.278       9.180       8.960    
        8.605       8.166       7.740       7.380       7.083       6.866       6.623       6.334       6.016       5.749    
        5.362       4.872       4.485       4.207       3.799       3.799       4.018       4.139       4.228       4.315    
        4.354       4.387       4.426       4.457       4.430       4.328       4.104       3.769       3.410       3.053    
        2.712       2.387       2.037       1.772       1.376      0.9605      0.6889      0.4514      0.2345       0.000    
  24    10.00       9.913       9.802       9.693       9.586       9.467       9.352       9.262       9.152       8.892    
        8.488       8.074       7.720       7.406       7.122       6.838       6.541       6.278       6.025       5.713    
        5.250       4.764       4.304       3.464       2.568       3.090       3.591       3.884       4.048       4.184    
        4.258       4.306       4.353       4.365       4.335       4.203       3.953       3.679       3.285       2.906    
        2.639       2.327       1.996       1.657       1.231      0.8911      0.6625      0.4228      0.1866       0.000    
  25    10.00       9.905       9.776       9.644       9.518       9.410       9.322       9.232       9.096       8.826    
        8.402       8.016       7.745       7.452       7.123       6.828       6.550       6.320       6.085       5.683    
        5.153       4.675       3.938       2.574     -0.2741       2.473       3.265       3.728       3.972       4.114    
        4.199       4.256       4.296       4.296       4.251       4.104       3.837       3.516       3.196       2.876    
        2.572       2.234       1.857       1.499       1.095      0.8178      0.6594      0.4107      0.1523       0.000    
  26    10.00       9.881       9.716       9.566       9.466       9.378       9.291       9.180       9.020       8.687    
        8.292       8.022       7.761       7.469       7.161       6.878       6.616       6.387       6.092       5.664    
        5.198       4.670       4.025       3.287       2.609       2.967       3.438       3.764       3.963       4.093    
        4.174       4.232       4.255       4.243       4.175       3.996       3.698       3.438       3.182       2.838    
        2.524       2.142       1.709       1.325      0.9952      0.7998      0.6232      0.3657      0.1557       0.000    
  27    10.00       9.854       9.678       9.539       9.454       9.340       9.225       9.084       8.870       8.554    
        8.274       8.035       7.770       7.485       7.183       6.958       6.777       6.468       6.096       5.659    
        5.264       4.881       4.362       3.875       3.491       3.549       3.729       3.889       4.015       4.108    
        4.191       4.238       4.243       4.208       4.114       3.907       3.669       3.442       3.144       2.821    
        2.496       2.035       1.540       1.179      0.9493      0.7863      0.5922      0.3863      0.1863       0.000    
  28    10.00       9.835       9.706       9.550       9.405       9.265       9.137       8.972       8.758       8.512    
        8.282       8.068       7.805       7.487       7.219       7.037       6.835       6.496       6.064       5.678    
        5.397       5.111       4.702       4.323       4.078       3.997       3.990       4.039       4.119       4.195    
        4.247       4.257       4.245       4.188       4.062       3.874       3.684       3.415       3.105       2.780    
        2.382       1.948       1.457       1.099      0.9386      0.7828      0.6103      0.4033      0.1870       0.000    
  29    10.00       9.841       9.680       9.515       9.341       9.206       9.061       8.877       8.696       8.501    
        8.296       8.083       7.828       7.560       7.329       7.114       6.845       6.468       6.074       5.774    
        5.535       5.283       4.947       4.609       4.409       4.299       4.231       4.228       4.266       4.290    
        4.292       4.284       4.251       4.171       4.026       3.864       3.686       3.436       3.092       2.680    
        2.316       1.854       1.364       1.083      0.9414      0.7881      0.6054      0.3938      0.1959       0.000    
  30    10.00       9.817       9.656       9.457       9.281       9.156       9.002       8.840       8.700       8.525    
        8.314       8.085       7.852       7.638       7.433       7.191       6.848       6.497       6.181       5.895    
        5.689       5.440       5.134       4.840       4.599       4.502       4.438       4.412       4.388       4.365    
        4.338       4.311       4.257       4.151       4.018       3.889       3.710       3.388       2.962       2.540    
        2.170       1.745       1.372       1.112      0.9626      0.7896      0.5946      0.4126      0.2025       0.000    
  31    10.00       9.793       9.607       9.417       9.257       9.128       8.981       8.838       8.699       8.529    
        8.321       8.090       7.889       7.712       7.519       7.247       6.908       6.603       6.354       6.100    
        5.880       5.598       5.297       5.049       4.804       4.646       4.581       4.518       4.472       4.423    
        4.386       4.334       4.259       4.154       4.024       3.878       3.596       3.234       2.879       2.466    
        2.116       1.693       1.329       1.140      0.9801      0.8173      0.6144      0.4130      0.1958       0.000    
  32    10.00       9.778       9.577       9.414       9.280       9.151       8.998       8.834       8.666       8.505    
        8.301       8.101       7.922       7.727       7.548       7.318       7.054       6.825       6.568       6.305    
        6.084       5.821       5.516       5.250       4.995       4.771       4.684       4.603       4.537       4.468    
        4.415       4.364       4.262       4.130       4.007       3.804       3.453       3.111       2.798       2.421    
        2.013       1.618       1.350       1.205       1.030      0.8241      0.6096      0.3922      0.1957       0.000    
  33    10.00       9.771       9.599       9.468       9.334       9.184       9.001       8.820       8.640       8.456    
        8.285       8.118       7.942       7.755       7.557       7.378       7.185       6.990       6.780       6.523    
        6.265       6.019       5.762       5.452       5.138       4.883       4.754       4.673       4.590       4.503    
        4.440       4.366       4.255       4.127       3.947       3.666       3.305       3.015       2.712       2.272    
        1.900       1.641       1.428       1.256       1.056      0.8400      0.5772      0.3450      0.1555       0.000    
  34    10.00       9.791       9.650       9.528       9.379       9.196       9.003       8.791       8.593       8.439    
        8.286       8.134       7.975       7.783       7.608       7.435       7.268       7.112       6.912       6.651    
        6.408       6.184       5.930       5.607       5.263       4.978       4.812       4.715       4.622       4.525    
        4.440       4.359       4.248       4.088       3.868       3.520       3.168       2.906       2.545       2.157    
        1.927       1.756       1.551       1.329       1.067      0.7618      0.4664      0.2762      0.1145       0.000    
  35    10.00       9.826       9.699       9.575       9.416       9.210       8.989       8.754       8.566       8.434    
        8.332       8.179       8.002       7.799       7.613       7.490       7.368       7.208       7.001       6.752    
        6.520       6.299       6.065       5.703       5.313       5.042       4.859       4.748       4.640       4.529    
        4.443       4.348       4.216       4.006       3.665       3.301       3.066       2.792       2.423       2.189    
        2.028       1.834       1.628       1.411       1.079      0.6479      0.3583      0.2356      0.1196       0.000    
  36    10.00       9.846       9.737       9.618       9.449       9.205       8.935       8.715       8.579       8.477    
        8.339       8.165       8.004       7.824       7.660       7.538       7.422       7.281       7.117       6.888    
        6.647       6.413       6.125       5.737       5.353       5.077       4.904       4.773       4.639       4.526    
        4.430       4.307       4.098       3.784       3.472       3.221       2.999       2.712       2.418       2.262    
        2.099       1.925       1.717       1.437      0.9845      0.5458      0.3366      0.2154      0.1107       0.000    
  37    10.00       9.863       9.778       9.650       9.426       9.159       8.921       8.749       8.637       8.515    
        8.336       8.150       8.011       7.856       7.704       7.588       7.481       7.350       7.178       6.979    
        6.782       6.527       6.169       5.802       5.437       5.126       4.916       4.752       4.631       4.510    
        4.387       4.208       3.896       3.609       3.389       3.172       2.943       2.717       2.505       2.332    
        2.174       1.979       1.742       1.375      0.9029      0.5265      0.3155      0.2005      0.1006       0.000    
  38    10.00       9.883       9.781       9.641       9.409       9.134       8.933       8.806       8.690       8.547    
        8.357       8.162       8.026       7.883       7.732       7.616       7.524       7.411       7.242       7.070    
        6.888       6.598       6.191       5.794       5.435       5.131       4.903       4.721       4.601       4.488    
        4.320       4.024       3.747       3.566       3.347       3.132       2.966       2.775       2.581       2.414    
        2.229       1.962       1.662       1.263      0.7940      0.5050      0.3553      0.2214      9.9344E-02   0.000    
  39    10.00       9.882       9.766       9.620       9.396       9.147       8.966       8.853       8.711       8.554    
        8.401       8.204       8.047       7.913       7.768       7.644       7.541       7.430       7.295       7.139    
        6.930       6.621       6.202       5.758       5.388       5.105       4.848       4.661       4.565       4.458    
        4.202       3.893       3.718       3.512       3.307       3.154       3.015       2.841       2.653       2.496    
        2.227       1.849       1.496       1.064      0.7088      0.5472      0.4075      0.2653      0.1365       0.000    
  40    10.00       9.873       9.771       9.622       9.417       9.208       9.032       8.883       8.716       8.571    
        8.456       8.265       8.069       7.932       7.798       7.659       7.545       7.458       7.340       7.156    
        6.917       6.562       6.136       5.720       5.341       5.047       4.758       4.611       4.526       4.382    
        4.150       3.917       3.680       3.465       3.321       3.187       3.056       2.893       2.719       2.513    
        2.150       1.737       1.354       1.004      0.7607      0.5942      0.4549      0.3211      0.1577       0.000    
  41    10.00       9.891       9.809       9.665       9.453       9.237       9.069       8.936       8.772       8.599    
        8.464       8.291       8.109       7.980       7.825       7.659       7.560       7.467       7.315       7.116    
        6.870       6.524       6.098       5.692       5.314       4.922       4.653       4.573       4.481       4.374    
        4.189       3.908       3.670       3.499       3.355       3.235       3.091       2.934       2.755       2.434    
        2.008       1.606       1.272       1.014      0.8037      0.6491      0.5002      0.3534      0.1861       0.000    
  42    10.00       9.918       9.828       9.690       9.508       9.302       9.113       8.976       8.829       8.640    
        8.466       8.301       8.147       8.024       7.861       7.685       7.566       7.439       7.275       7.048    
        6.767       6.390       6.019       5.616       5.125       4.776       4.634       4.570       4.491       4.374    
        4.159       3.913       3.690       3.518       3.401       3.273       3.145       2.976       2.690       2.265    
        1.892       1.592       1.302       1.010      0.8144      0.6830      0.5401      0.3682      0.2043       0.000    
  43    10.00       9.936       9.840       9.698       9.519       9.348       9.181       9.027       8.846       8.652    
        8.493       8.326       8.175       8.061       7.909       7.712       7.555       7.410       7.185       6.896    
        6.621       6.258       5.914       5.454       4.992       4.761       4.649       4.575       4.500       4.377    
        4.173       3.948       3.733       3.564       3.452       3.326       3.157       2.916       2.499       2.122    
        1.889       1.622       1.317       1.014      0.8068      0.6852      0.5750      0.3984      0.1867       0.000    
  44    10.00       9.928       9.847       9.700       9.538       9.415       9.247       9.039       8.835       8.673    
        8.515       8.349       8.216       8.096       7.920       7.711       7.531       7.358       7.093       6.802    
        6.472       6.109       5.744       5.284       4.937       4.766       4.671       4.606       4.524       4.370    
        4.160       3.980       3.791       3.633       3.518       3.347       3.123       2.778       2.352       2.102    
        1.889       1.610       1.305       1.029      0.8174      0.6876      0.5757      0.3904      0.1720       0.000    
  45    10.00       9.914       9.816       9.698       9.580       9.424       9.248       9.051       8.848       8.686    
        8.522       8.373       8.256       8.120       7.929       7.705       7.503       7.307       7.019       6.677    
        6.297       5.912       5.519       5.180       4.940       4.795       4.702       4.634       4.531       4.405    
        4.223       4.018       3.849       3.688       3.525       3.343       3.098       2.729       2.360       2.067    
        1.824       1.561       1.276       1.028      0.8436      0.7357      0.5685      0.3384      0.1543       0.000    
  46    10.00       9.896       9.795       9.701       9.568       9.390       9.220       9.059       8.860       8.687    
        8.542       8.403       8.286       8.125       7.920       7.721       7.507       7.250       6.938       6.567    
        6.119       5.736       5.422       5.164       4.982       4.854       4.740       4.649       4.567       4.426    
        4.234       4.057       3.891       3.707       3.545       3.370       3.094       2.668       2.280       2.019    
        1.790       1.538       1.270       1.052      0.9086      0.7698      0.5159      0.2536      0.1103       0.000    
  47    10.00       9.890       9.788       9.658       9.504       9.357       9.211       9.038       8.856       8.702    
        8.570       8.446       8.281       8.106       7.923       7.730       7.496       7.196       6.904       6.453    
        5.966       5.667       5.396       5.194       5.025       4.900       4.787       4.676       4.580       4.435    
        4.234       4.059       3.893       3.718       3.577       3.367       2.983       2.601       2.275       1.997    
        1.796       1.558       1.319       1.109      0.9311      0.7068      0.4248      0.2220      9.2469E-02   0.000    
  48    10.00       9.878       9.755       9.617       9.477       9.347       9.199       9.040       8.873       8.722    
        8.587       8.442       8.263       8.082       7.903       7.712       7.488       7.206       6.842       6.393    
        5.973       5.666       5.402       5.217       5.079       4.927       4.812       4.719       4.601       4.404    
        4.207       4.037       3.884       3.754       3.569       3.292       2.926       2.581       2.273       2.028    
        1.811       1.584       1.368       1.130      0.8641      0.5747      0.3633      0.2155      9.7357E-02   0.000    
  49    10.00       9.867       9.733       9.598       9.484       9.349       9.192       9.036       8.901       8.744    
        8.583       8.401       8.225       8.074       7.870       7.684       7.497       7.182       6.822       6.465    
        6.022       5.679       5.417       5.255       5.093       4.929       4.840       4.752       4.564       4.327    
        4.158       4.021       3.910       3.742       3.528       3.279       2.913       2.568       2.326       2.066    
        1.810       1.602       1.372       1.092      0.7654      0.5126      0.3635      0.2346      0.1204       0.000    
  50    10.00       9.872       9.738       9.601       9.476       9.344       9.204       9.051       8.908       8.768    
        8.571       8.380       8.219       8.017       7.809       7.667       7.490       7.245       6.889       6.536    
        6.084       5.653       5.425       5.260       5.092       4.958       4.852       4.734       4.512       4.287    
        4.147       4.034       3.904       3.730       3.531       3.294       2.923       2.570       2.335       2.100    
        1.857       1.594       1.335       1.036      0.7137      0.5246      0.3912      0.2651      0.1599       0.000    

 HEAD WILL BE SAVED ON UNIT   51 AT END OF TIME STEP  63, STRESS PERIOD    2

 DRAWDOWN WILL BE SAVED ON UNIT   52 AT END OF TIME STEP  63, STRESS PERIOD    2
1
  VOLUMETRIC BUDGET FOR ENTIRE MODEL AT END OF TIME STEP 63 IN STRESS PERIOD   2
  ------------------------------------------------------------------------------

     CUMULATIVE VOLUMES      L**3       RATES FOR THIS TIME STEP      L**3/T
     ------------------                 ------------------------

           IN:                                      IN:
           ---                                      ---
             STORAGE =       30939.5098               STORAGE =         467.2435
       CONSTANT HEAD =       24344.8770         CONSTANT HEAD =         401.0519
               WELLS =           0.0000                 WELLS =           0.0000

            TOTAL IN =       55284.3867              TOTAL IN =         868.2954

          OUT:                                     OUT:
          ----                                     ----
             STORAGE =       1.1143E-02               STORAGE =           0.0000
       CONSTANT HEAD =       23784.3730         CONSTANT HEAD =         368.2954
               WELLS =       31500.0000                 WELLS =         500.0000

           TOTAL OUT =       55284.3828             TOTAL OUT =         868.2954

            IN - OUT =       3.9063E-03              IN - OUT =           0.0000

 PERCENT DISCREPANCY =           0.00     PERCENT DISCREPANCY =           0.00






          TIME SUMMARY AT END OF TIME STEP  63 IN STRESS PERIOD    2
                    SECONDS     MINUTES      HOURS       DAYS        YEARS
                    -----------------------------------------------------------
   TIME STEP LENGTH  86400.      1440.0      24.000      1.0000     2.73785E-03
 STRESS PERIOD TIME 5.44320E+06  90720.      1512.0      63.000     0.17248    
         TOTAL TIME 5.52960E+06  92160.      1536.0      64.000     0.17522    
1
 
 SOLVING FOR HEAD 

 OUTPUT CONTROL FOR STRESS PERIOD    2   TIME STEP  64
    SAVE HEAD FOR ALL LAYERS
    SAVE DRAWDOWN FOR ALL LAYERS
    SAVE BUDGET
    PRINT HEAD FOR ALL LAYERS
    PRINT BUDGET
 UBDSV1 SAVING "         STORAGE" ON UNIT  53 AT TIME STEP 64, STRESS PERIOD   2
 UBDSV2 SAVING "   CONSTANT HEAD" ON UNIT  53 AT TIME STEP 64, STRESS PERIOD   2
 UBDSV1 SAVING "FLOW RIGHT FACE " ON UNIT  53 AT TIME STEP 64, STRESS PERIOD   2
 UBDSV1 SAVING "FLOW FRONT FACE " ON UNIT  53 AT TIME STEP 64, STRESS PERIOD   2
1
              HEAD IN LAYER   1 AT END OF TIME STEP  64 IN STRESS PERIOD    2
  ---------------------------------------------------------------------------

            1           2           3           4           5           6           7           8           9          10
           11          12          13          14          15          16          17          18          19          20
           21          22          23          24          25          26          27          28          29          30
           31          32          33          34          35          36          37          38          39          40
           41          42          43          44          45          46          47          48          49          50
 ........................................................................................................................
   1    10.00       9.951       9.903       9.846       9.801       9.763       9.712       9.642       9.566       9.496    
        9.341       9.146       9.003       8.843       8.673       8.501       8.341       8.158       7.913       7.669    
        7.502       7.312       7.061       6.807       6.579       6.382       6.100       5.844       5.662       5.473    
        5.310       5.205       5.093       4.965       4.843       4.691       4.528       4.307       4.054       3.777    
        3.418       3.053       2.573       2.048       1.652       1.367       1.154      0.9099      0.5342       0.000    
   2    10.00       9.946       9.894       9.846       9.808       9.771       9.715       9.643       9.573       9.478    
        9.327       9.153       8.992       8.846       8.689       8.511       8.321       8.132       7.904       7.658    
        7.476       7.320       7.052       6.777       6.575       6.351       6.079       5.835       5.626       5.447    
        5.310       5.213       5.119       4.982       4.839       4.689       4.501       4.295       4.050       3.733    
        3.398       3.088       2.584       2.062       1.712       1.458       1.212      0.9397      0.5674       0.000    
   3    10.00       9.938       9.894       9.861       9.824       9.786       9.726       9.641       9.555       9.452    
        9.314       9.160       9.004       8.857       8.670       8.447       8.262       8.098       7.888       7.672    
        7.486       7.262       6.998       6.755       6.535       6.285       6.023       5.781       5.567       5.434    
        5.323       5.231       5.136       4.986       4.835       4.675       4.489       4.259       3.985       3.742    
        3.446       3.023       2.531       2.157       1.859       1.564       1.262      0.9525      0.5379       0.000    
   4    10.00       9.938       9.899       9.869       9.844       9.803       9.734       9.635       9.534       9.431    
        9.300       9.161       9.006       8.820       8.590       8.383       8.250       8.066       7.863       7.694    
        7.438       7.154       6.921       6.705       6.493       6.192       5.902       5.708       5.564       5.451    
        5.351       5.255       5.151       4.977       4.791       4.646       4.449       4.210       3.977       3.765    
        3.429       2.962       2.591       2.277       1.957       1.622       1.259      0.8965      0.4596       0.000    
   5    10.00       9.943       9.907       9.877       9.855       9.813       9.739       9.627       9.514       9.411    
        9.299       9.156       8.956       8.739       8.544       8.380       8.214       8.042       7.852       7.613    
        7.315       7.081       6.887       6.669       6.394       6.083       5.845       5.708       5.589       5.474    
        5.360       5.242       5.123       4.955       4.765       4.589       4.413       4.226       4.014       3.735    
        3.354       2.999       2.682       2.365       2.016       1.627       1.170      0.7547      0.3909       0.000    
   6    10.00       9.952       9.918       9.888       9.857       9.811       9.732       9.611       9.513       9.402    
        9.277       9.099       8.880       8.699       8.519       8.332       8.162       8.008       7.795       7.523    
        7.258       7.034       6.836       6.565       6.267       6.032       5.840       5.712       5.580       5.460    
        5.359       5.230       5.082       4.908       4.723       4.573       4.421       4.251       4.029       3.728    
        3.396       3.053       2.730       2.410       2.031       1.560       1.069      0.7094      0.3653       0.000    
   7    10.00       9.959       9.928       9.898       9.864       9.808       9.703       9.586       9.484       9.346    
        9.217       9.028       8.828       8.643       8.456       8.266       8.101       7.959       7.713       7.423    
        7.183       6.955       6.734       6.471       6.219       6.004       5.836       5.682       5.539       5.448    
        5.344       5.201       5.044       4.870       4.712       4.578       4.437       4.264       4.036       3.764    
        3.434       3.082       2.747       2.394       2.021       1.526       1.022      0.6754      0.3197       0.000    
   8    10.00       9.966       9.939       9.905       9.866       9.776       9.647       9.537       9.408       9.277    
        9.134       8.940       8.770       8.580       8.372       8.184       8.041       7.871       7.638       7.356    
        7.078       6.868       6.684       6.414       6.151       5.960       5.769       5.602       5.506       5.416    
        5.292       5.150       5.017       4.866       4.702       4.565       4.457       4.326       4.105       3.793    
        3.432       3.119       2.807       2.396       1.980       1.428      0.9466      0.6614      0.3061       0.000    
   9    10.00       9.973       9.942       9.904       9.838       9.720       9.582       9.453       9.340       9.205    
        9.035       8.863       8.693       8.510       8.294       8.119       7.984       7.783       7.552       7.264    
        7.023       6.814       6.552       6.274       6.052       5.881       5.691       5.552       5.458       5.356    
        5.243       5.115       4.991       4.858       4.719       4.589       4.483       4.366       4.138       3.800    
        3.469       3.192       2.863       2.468       1.853       1.230      0.9017      0.5592      0.2133       0.000    
  10    10.00       9.973       9.941       9.887       9.786       9.645       9.492       9.391       9.284       9.124    
        8.976       8.805       8.635       8.437       8.237       8.079       7.897       7.688       7.444       7.210    
        6.973       6.651       6.381       6.162       5.974       5.820       5.644       5.503       5.410       5.326    
        5.208       5.071       4.959       4.838       4.715       4.628       4.522       4.387       4.126       3.792    
        3.534       3.290       2.914       2.318       1.606       1.154      0.8182      0.4997      0.2493       0.000    
  11    10.00       9.973       9.930       9.847       9.733       9.575       9.440       9.355       9.227       9.090    
        8.948       8.768       8.564       8.351       8.183       8.012       7.841       7.617       7.379       7.149    
        6.808       6.498       6.283       6.087       5.905       5.733       5.566       5.457       5.380       5.297    
        5.161       5.034       4.943       4.835       4.736       4.639       4.519       4.373       4.128       3.861    
        3.590       3.273       2.863       2.206       1.540       1.085      0.7665      0.5816      0.3214       0.000    
  12    10.00       9.971       9.911       9.804       9.654       9.497       9.390       9.305       9.192       9.069    
        8.913       8.721       8.516       8.328       8.156       7.967       7.770       7.539       7.297       6.983    
        6.646       6.412       6.200       5.999       5.798       5.628       5.512       5.431       5.332       5.223    
        5.102       5.009       4.929       4.845       4.760       4.662       4.534       4.358       4.131       3.892    
        3.601       3.256       2.695       1.956       1.388       1.068      0.8508      0.6171      0.3519       0.000    
  13    10.00       9.961       9.868       9.721       9.565       9.430       9.343       9.268       9.172       9.053    
        8.888       8.688       8.500       8.349       8.149       7.917       7.686       7.436       7.165       6.858    
        6.564       6.309       6.079       5.871       5.677       5.554       5.481       5.365       5.238       5.140    
        5.064       4.993       4.921       4.852       4.769       4.684       4.569       4.368       4.138       3.854    
        3.520       3.084       2.432       1.833       1.421       1.148      0.8944      0.6187      0.3057       0.000    
  14    10.00       9.928       9.795       9.633       9.488       9.382       9.323       9.254       9.162       9.031    
        8.849       8.678       8.523       8.365       8.139       7.865       7.616       7.333       7.032       6.712    
        6.426       6.171       5.944       5.739       5.589       5.504       5.414       5.273       5.166       5.093    
        5.039       4.971       4.912       4.847       4.773       4.706       4.571       4.364       4.122       3.768    
        3.375       2.860       2.359       1.922       1.512       1.192      0.9102      0.6192      0.2759       0.000    
  15    10.00       9.866       9.718       9.573       9.456       9.375       9.310       9.245       9.154       9.031    
        8.869       8.703       8.550       8.326       8.061       7.797       7.521       7.227       6.869       6.527    
        6.262       6.016       5.803       5.647       5.534       5.445       5.334       5.203       5.115       5.064    
        5.002       4.948       4.902       4.841       4.773       4.699       4.555       4.361       4.054       3.673    
        3.266       2.804       2.399       1.949       1.604       1.263      0.9216      0.6135      0.2517       0.000    
  16    10.00       9.844       9.683       9.550       9.450       9.375       9.308       9.248       9.160       9.033    
        8.880       8.720       8.531       8.247       7.956       7.737       7.464       7.071       6.661       6.345    
        6.073       5.867       5.694       5.561       5.437       5.357       5.235       5.129       5.062       5.004    
        4.960       4.926       4.879       4.822       4.761       4.676       4.545       4.309       3.975       3.630    
        3.282       2.840       2.384       1.988       1.662       1.304      0.9192      0.5500      0.2071       0.000    
  17    10.00       9.823       9.661       9.554       9.465       9.389       9.324       9.256       9.160       9.041    
        8.898       8.697       8.437       8.130       7.885       7.678       7.343       6.900       6.486       6.181    
        5.963       5.734       5.541       5.400       5.298       5.196       5.090       5.025       4.971       4.941    
        4.926       4.895       4.846       4.791       4.727       4.636       4.481       4.275       4.007       3.647    
        3.251       2.785       2.364       2.014       1.682       1.314      0.9389      0.5732      0.2424       0.000    
  18    10.00       9.812       9.660       9.568       9.487       9.414       9.349       9.267       9.173       9.045    
        8.874       8.635       8.346       8.085       7.846       7.540       7.152       6.747       6.382       6.082    
        5.813       5.520       5.353       5.236       5.147       5.031       4.964       4.907       4.874       4.880    
        4.876       4.849       4.801       4.739       4.673       4.577       4.430       4.264       4.032       3.701    
        3.189       2.693       2.350       2.017       1.734       1.348      0.9341      0.5624      0.2424       0.000    
  19    10.00       9.821       9.694       9.599       9.513       9.439       9.363       9.286       9.199       9.051    
        8.849       8.594       8.308       8.018       7.700       7.369       7.009       6.619       6.251       5.933    
        5.621       5.366       5.233       5.143       5.016       4.914       4.857       4.805       4.797       4.801    
        4.807       4.792       4.736       4.680       4.627       4.554       4.416       4.235       4.002       3.614    
        3.099       2.678       2.336       2.009       1.692       1.294      0.8978      0.5592      0.2637       0.000    
  20    10.00       9.830       9.722       9.639       9.556       9.469       9.378       9.296       9.208       9.057    
        8.838       8.572       8.239       7.862       7.497       7.227       6.865       6.447       6.124       5.808    
        5.530       5.319       5.158       5.020       4.859       4.787       4.750       4.725       4.729       4.730    
        4.736       4.713       4.668       4.637       4.594       4.521       4.363       4.181       3.915       3.481    
        3.037       2.702       2.307       1.934       1.587       1.195      0.9007      0.5556      0.2464       0.000    
  21    10.00       9.855       9.758       9.674       9.583       9.500       9.400       9.310       9.214       9.045    
        8.808       8.482       8.066       7.625       7.286       7.040       6.700       6.395       6.092       5.751    
        5.486       5.253       5.051       4.790       4.656       4.619       4.563       4.602       4.637       4.634    
        4.631       4.605       4.599       4.584       4.551       4.451       4.297       4.141       3.755       3.302    
        2.972       2.609       2.206       1.858       1.491       1.147      0.8156      0.4894      0.2460       0.000    
  22    10.00       9.886       9.784       9.693       9.604       9.526       9.412       9.296       9.185       9.009    
        8.719       8.309       7.840       7.427       7.136       6.879       6.620       6.400       6.066       5.732    
        5.453       5.119       4.757       4.484       4.383       4.285       4.298       4.404       4.444       4.465    
        4.483       4.482       4.508       4.525       4.494       4.393       4.240       3.950       3.510       3.221    
        2.866       2.475       2.112       1.777       1.464       1.056      0.7079      0.4692      0.2639       0.000    
  23    10.00       9.888       9.789       9.706       9.614       9.510       9.381       9.276       9.178       8.956    
        8.600       8.160       7.732       7.371       7.073       6.856       6.612       6.323       6.004       5.737    
        5.350       4.859       4.471       4.193       3.785       3.785       4.004       4.126       4.215       4.301    
        4.340       4.374       4.412       4.444       4.417       4.317       4.094       3.760       3.403       3.048    
        2.708       2.384       2.035       1.770       1.374      0.9597      0.6885      0.4511      0.2343       0.000    
  24    10.00       9.912       9.801       9.692       9.585       9.465       9.349       9.259       9.149       8.888    
        8.482       8.067       7.712       7.397       7.113       6.828       6.530       6.267       6.014       5.701    
        5.238       4.751       4.290       3.450       2.554       3.076       3.577       3.870       4.034       4.170    
        4.244       4.292       4.339       4.352       4.323       4.192       3.944       3.671       3.279       2.901    
        2.635       2.324       1.994       1.656       1.230      0.8904      0.6620      0.4225      0.1865       0.000    
  25    10.00       9.904       9.775       9.642       9.517       9.408       9.319       9.229       9.093       8.822    
        8.397       8.009       7.737       7.443       7.113       6.818       6.539       6.309       6.073       5.670    
        5.140       4.662       3.925       2.560     -0.2892       2.458       3.251       3.714       3.958       4.100    
        4.185       4.242       4.282       4.282       4.239       4.092       3.828       3.508       3.189       2.871    
        2.568       2.231       1.855       1.498       1.094      0.8172      0.6589      0.4104      0.1522       0.000    
  26    10.00       9.880       9.715       9.565       9.464       9.376       9.288       9.177       9.016       8.682    
        8.286       8.014       7.753       7.460       7.152       6.868       6.605       6.376       6.080       5.651    
        5.185       4.657       4.011       3.273       2.595       2.952       3.424       3.750       3.949       4.079    
        4.160       4.218       4.242       4.229       4.163       3.985       3.688       3.430       3.176       2.833    
        2.520       2.139       1.707       1.323      0.9943      0.7991      0.6227      0.3654      0.1555       0.000    
  27    10.00       9.854       9.677       9.537       9.452       9.337       9.222       9.081       8.866       8.549    
        8.268       8.028       7.762       7.477       7.174       6.948       6.767       6.457       6.084       5.647    
        5.251       4.868       4.348       3.861       3.477       3.535       3.715       3.875       4.001       4.094    
        4.177       4.224       4.229       4.195       4.102       3.896       3.660       3.434       3.137       2.816    
        2.492       2.032       1.538       1.178      0.9484      0.7856      0.5917      0.3860      0.1862       0.000    
  28    10.00       9.834       9.705       9.549       9.403       9.263       9.134       8.968       8.753       8.507    
        8.276       8.061       7.798       7.479       7.209       7.027       6.825       6.485       6.052       5.666    
        5.385       5.098       4.689       4.309       4.064       3.983       3.976       4.025       4.105       4.181    
        4.233       4.244       4.232       4.175       4.050       3.864       3.674       3.407       3.098       2.774    
        2.378       1.945       1.455       1.098      0.9377      0.7820      0.6097      0.4029      0.1869       0.000    
  29    10.00       9.840       9.679       9.513       9.339       9.203       9.058       8.873       8.692       8.496    
        8.290       8.077       7.821       7.552       7.320       7.105       6.835       6.458       6.063       5.762    
        5.523       5.270       4.934       4.595       4.395       4.286       4.217       4.215       4.253       4.277    
        4.279       4.270       4.238       4.158       4.015       3.853       3.677       3.427       3.085       2.675    
        2.312       1.852       1.362       1.082      0.9405      0.7873      0.6049      0.3935      0.1957       0.000    
  30    10.00       9.817       9.655       9.455       9.278       9.154       8.998       8.836       8.695       8.520    
        8.308       8.079       7.845       7.630       7.424       7.182       6.838       6.487       6.170       5.884    
        5.677       5.428       5.121       4.827       4.586       4.489       4.425       4.399       4.375       4.352    
        4.325       4.298       4.245       4.139       4.007       3.878       3.701       3.380       2.956       2.535    
        2.166       1.743       1.370       1.111      0.9617      0.7889      0.5940      0.4123      0.2023       0.000    
  31    10.00       9.793       9.605       9.415       9.255       9.125       8.978       8.834       8.695       8.524    
        8.315       8.084       7.882       7.705       7.511       7.238       6.899       6.593       6.343       6.089    
        5.868       5.586       5.284       5.037       4.791       4.633       4.568       4.505       4.459       4.410    
        4.373       4.322       4.246       4.142       4.013       3.868       3.587       3.227       2.873       2.462    
        2.113       1.690       1.327       1.139      0.9792      0.8165      0.6138      0.4126      0.1956       0.000    
  32    10.00       9.777       9.575       9.412       9.277       9.148       8.994       8.831       8.662       8.501    
        8.295       8.095       7.916       7.720       7.541       7.309       7.045       6.815       6.558       6.295    
        6.073       5.809       5.504       5.238       4.982       4.758       4.672       4.590       4.524       4.455    
        4.402       4.351       4.250       4.119       3.997       3.794       3.445       3.105       2.793       2.417    
        2.010       1.616       1.348       1.203       1.029      0.8233      0.6090      0.3919      0.1955       0.000    
  33    10.00       9.770       9.597       9.467       9.332       9.182       8.998       8.816       8.635       8.451    
        8.280       8.112       7.935       7.749       7.550       7.370       7.177       6.981       6.770       6.513    
        6.255       6.008       5.751       5.440       5.125       4.871       4.742       4.660       4.578       4.491    
        4.428       4.354       4.244       4.116       3.937       3.657       3.298       3.009       2.707       2.269    
        1.898       1.640       1.427       1.255       1.055      0.8392      0.5767      0.3447      0.1553       0.000    
  34    10.00       9.791       9.649       9.526       9.377       9.194       9.000       8.787       8.588       8.434    
        8.281       8.128       7.968       7.776       7.601       7.427       7.260       7.104       6.903       6.641    
        6.398       6.173       5.919       5.596       5.251       4.967       4.800       4.704       4.611       4.513    
        4.429       4.349       4.238       4.078       3.859       3.513       3.162       2.901       2.541       2.154    
        1.925       1.754       1.550       1.328       1.065      0.7611      0.4660      0.2760      0.1144       0.000    
  35    10.00       9.825       9.698       9.574       9.414       9.208       8.986       8.750       8.562       8.429    
        8.327       8.173       7.997       7.792       7.606       7.482       7.360       7.200       6.992       6.743    
        6.510       6.288       6.054       5.692       5.302       5.030       4.848       4.737       4.629       4.518    
        4.433       4.337       4.206       3.997       3.657       3.295       3.061       2.788       2.420       2.187    
        2.026       1.832       1.626       1.410       1.078      0.6473      0.3579      0.2354      0.1195       0.000    
  36    10.00       9.846       9.736       9.617       9.448       9.203       8.932       8.711       8.575       8.473    
        8.334       8.160       7.998       7.818       7.653       7.531       7.415       7.274       7.109       6.879    
        6.638       6.404       6.115       5.727       5.342       5.066       4.893       4.762       4.629       4.516    
        4.420       4.298       4.089       3.777       3.466       3.216       2.995       2.709       2.415       2.260    
        2.097       1.923       1.715       1.435      0.9836      0.5453      0.3363      0.2153      0.1106       0.000    
  37    10.00       9.862       9.777       9.649       9.424       9.156       8.918       8.745       8.633       8.511    
        8.331       8.145       8.006       7.850       7.698       7.581       7.475       7.343       7.170       6.971    
        6.774       6.518       6.159       5.792       5.427       5.116       4.906       4.743       4.622       4.500    
        4.378       4.199       3.889       3.604       3.384       3.168       2.939       2.714       2.503       2.329    
        2.172       1.977       1.741       1.373      0.9021      0.5261      0.3152      0.2003      0.1005       0.000    
  38    10.00       9.883       9.780       9.640       9.408       9.132       8.930       8.802       8.686       8.543    
        8.353       8.157       8.020       7.877       7.726       7.610       7.518       7.404       7.235       7.062    
        6.880       6.589       6.183       5.785       5.427       5.122       4.895       4.713       4.593       4.480    
        4.312       4.018       3.742       3.561       3.343       3.128       2.963       2.772       2.579       2.412    
        2.226       1.960       1.660       1.261      0.7933      0.5046      0.3550      0.2212      9.9275E-02   0.000    
  39    10.00       9.882       9.766       9.619       9.395       9.145       8.963       8.850       8.708       8.550    
        8.396       8.199       8.042       7.908       7.762       7.638       7.534       7.424       7.288       7.132    
        6.923       6.613       6.194       5.750       5.380       5.098       4.841       4.654       4.559       4.451    
        4.196       3.888       3.713       3.507       3.304       3.150       3.012       2.838       2.650       2.494    
        2.225       1.848       1.494       1.063      0.7083      0.5469      0.4072      0.2652      0.1364       0.000    
  40    10.00       9.873       9.771       9.621       9.415       9.206       9.030       8.880       8.712       8.567    
        8.452       8.261       8.064       7.927       7.792       7.653       7.539       7.451       7.333       7.149    
        6.910       6.555       6.129       5.713       5.335       5.041       4.752       4.605       4.520       4.376    
        4.145       3.912       3.676       3.462       3.317       3.184       3.052       2.890       2.716       2.511    
        2.148       1.736       1.353       1.003      0.7602      0.5938      0.4546      0.3209      0.1576       0.000    
  41    10.00       9.890       9.809       9.664       9.452       9.235       9.067       8.933       8.769       8.596    
        8.460       8.286       8.105       7.976       7.820       7.653       7.554       7.461       7.309       7.110    
        6.864       6.519       6.093       5.686       5.309       4.917       4.649       4.568       4.477       4.369    
        4.185       3.904       3.666       3.496       3.351       3.232       3.088       2.931       2.752       2.432    
        2.006       1.605       1.271       1.014      0.8032      0.6487      0.4999      0.3532      0.1860       0.000    
  42    10.00       9.918       9.828       9.690       9.507       9.301       9.111       8.974       8.826       8.637    
        8.463       8.297       8.144       8.020       7.857       7.680       7.561       7.434       7.269       7.044    
        6.762       6.385       6.014       5.611       5.121       4.771       4.630       4.566       4.487       4.370    
        4.155       3.910       3.687       3.514       3.398       3.270       3.142       2.973       2.688       2.263    
        1.891       1.591       1.301       1.009      0.8139      0.6826      0.5398      0.3680      0.2042       0.000    
  43    10.00       9.935       9.839       9.697       9.518       9.347       9.179       9.025       8.844       8.650    
        8.490       8.323       8.172       8.057       7.905       7.707       7.550       7.406       7.181       6.892    
        6.617       6.254       5.910       5.451       4.988       4.757       4.645       4.572       4.496       4.374    
        4.169       3.945       3.730       3.561       3.449       3.323       3.155       2.914       2.497       2.120    
        1.887       1.621       1.316       1.013      0.8064      0.6849      0.5747      0.3982      0.1866       0.000    
  44    10.00       9.928       9.847       9.699       9.537       9.414       9.246       9.037       8.833       8.671    
        8.512       8.346       8.213       8.093       7.917       7.708       7.528       7.355       7.089       6.799    
        6.469       6.106       5.741       5.281       4.934       4.763       4.667       4.603       4.520       4.366    
        4.157       3.977       3.788       3.630       3.515       3.344       3.121       2.776       2.351       2.101    
        1.888       1.609       1.305       1.029      0.8170      0.6873      0.5754      0.3902      0.1719       0.000    
  45    10.00       9.914       9.816       9.698       9.580       9.423       9.247       9.050       8.846       8.685    
        8.520       8.371       8.254       8.118       7.926       7.702       7.500       7.304       7.016       6.674    
        6.294       5.909       5.516       5.177       4.937       4.792       4.699       4.631       4.528       4.402    
        4.220       4.016       3.846       3.685       3.523       3.341       3.096       2.727       2.358       2.066    
        1.823       1.561       1.276       1.028      0.8432      0.7354      0.5682      0.3383      0.1542       0.000    
  46    10.00       9.896       9.795       9.701       9.568       9.389       9.219       9.058       8.859       8.686    
        8.541       8.401       8.284       8.123       7.918       7.719       7.505       7.248       6.936       6.564    
        6.117       5.734       5.420       5.162       4.979       4.851       4.737       4.646       4.564       4.423    
        4.231       4.054       3.889       3.704       3.543       3.368       3.092       2.667       2.279       2.018    
        1.789       1.537       1.269       1.052      0.9082      0.7695      0.5157      0.2535      0.1102       0.000    
  47    10.00       9.890       9.787       9.658       9.503       9.357       9.211       9.037       8.855       8.701    
        8.569       8.444       8.280       8.105       7.922       7.728       7.494       7.194       6.902       6.451    
        5.964       5.665       5.394       5.192       5.022       4.897       4.784       4.673       4.578       4.432    
        4.232       4.057       3.890       3.716       3.575       3.365       2.982       2.600       2.275       1.997    
        1.796       1.557       1.318       1.108      0.9307      0.7065      0.4247      0.2220      9.2440E-02   0.000    
  48    10.00       9.877       9.755       9.617       9.477       9.347       9.199       9.039       8.872       8.720    
        8.586       8.440       8.261       8.081       7.902       7.711       7.487       7.205       6.841       6.392    
        5.971       5.664       5.400       5.215       5.077       4.924       4.809       4.716       4.599       4.402    
        4.205       4.035       3.882       3.752       3.568       3.290       2.925       2.580       2.272       2.027    
        1.810       1.583       1.368       1.130      0.8638      0.5746      0.3632      0.2154      9.7332E-02   0.000    
  49    10.00       9.867       9.733       9.598       9.483       9.349       9.192       9.036       8.900       8.743    
        8.582       8.400       8.223       8.073       7.868       7.682       7.496       7.181       6.821       6.463    
        6.020       5.677       5.415       5.252       5.091       4.926       4.837       4.749       4.562       4.325    
        4.156       4.019       3.908       3.740       3.526       3.278       2.911       2.567       2.326       2.065    
        1.810       1.601       1.371       1.092      0.7653      0.5125      0.3634      0.2346      0.1203       0.000    
  50    10.00       9.872       9.738       9.600       9.475       9.343       9.204       9.050       8.907       8.767    
        8.569       8.379       8.218       8.015       7.808       7.666       7.489       7.244       6.888       6.534    
        6.082       5.651       5.423       5.258       5.090       4.956       4.849       4.732       4.510       4.285    
        4.145       4.032       3.902       3.728       3.530       3.292       2.922       2.569       2.334       2.099    
        1.857       1.593       1.335       1.035      0.7135      0.5245      0.3911      0.2651      0.1599       0.000    

 HEAD WILL BE SAVED ON UNIT   51 AT END OF TIME STEP  64, STRESS PERIOD    2

 DRAWDOWN WILL BE SAVED ON UNIT   52 AT END OF TIME STEP  64, STRESS PERIOD    2
1
  VOLUMETRIC BUDGET FOR ENTIRE MODEL AT END OF TIME STEP 64 IN STRESS PERIOD   2
  ------------------------------------------------------------------------------

     CUMULATIVE VOLUMES      L**3       RATES FOR THIS TIME STEP      L**3/T
     ------------------                 ------------------------

           IN:                                      IN:
           ---                                      ---
             STORAGE =       31405.5176               STORAGE =         466.0081
       CONSTANT HEAD =       24746.9199         CONSTANT HEAD =         402.0425
               WELLS =           0.0000                 WELLS =           0.0000

            TOTAL IN =       56152.4375              TOTAL IN =         868.0507

          OUT:                                     OUT:
          ----                                     ----
             STORAGE =       1.1143E-02               STORAGE =           0.0000
       CONSTANT HEAD =       24152.4238         CONSTANT HEAD =         368.0511
               WELLS =       32000.0000                 WELLS =         500.0000

           TOTAL OUT =       56152.4336             TOTAL OUT =         868.0511

            IN - OUT =       3.9063E-03              IN - OUT =      -4.2725E-04

 PERCENT DISCREPANCY =           0.00     PERCENT DISCREPANCY =           0.00






          TIME SUMMARY AT END OF TIME STEP  64 IN STRESS PERIOD    2
                    SECONDS     MINUTES      HOURS       DAYS        YEARS
                    -----------------------------------------------------------
   TIME STEP LENGTH  86400.      1440.0      24.000      1.0000     2.73785E-03
 STRESS PERIOD TIME 5.52960E+06  92160.      1536.0      64.000     0.17522    
         TOTAL TIME 5.61600E+06  93600.      1560.0      65.000     0.17796    
1
 
 SOLVING FOR HEAD 

 OUTPUT CONTROL FOR STRESS PERIOD    2   TIME STEP  65
    SAVE HEAD FOR ALL LAYERS
    SAVE DRAWDOWN FOR ALL LAYERS
    SAVE BUDGET
    PRINT HEAD FOR ALL LAYERS
    PRINT BUDGET
 UBDSV1 SAVING "         STORAGE" ON UNIT  53 AT TIME STEP 65, STRESS PERIOD   2
 UBDSV2 SAVING "   CONSTANT HEAD" ON UNIT  53 AT TIME STEP 65, STRESS PERIOD   2
 UBDSV1 SAVING "FLOW RIGHT FACE " ON UNIT  53 AT TIME STEP 65, STRESS PERIOD   2
 UBDSV1 SAVING "FLOW FRONT FACE " ON UNIT  53 AT TIME STEP 65, STRESS PERIOD   2
1
              HEAD IN LAYER   1 AT END OF TIME STEP  65 IN STRESS PERIOD    2
  ---------------------------------------------------------------------------

            1           2           3           4           5           6           7           8           9          10
           11          12          13          14          15          16          17          18          19          20
           21          22          23          24          25          26          27          28          29          30
           31          32          33          34          35          36          37          38          39          40
           41          42          43          44          45          46          47          48          49          50
 ........................................................................................................................
   1    10.00       9.951       9.903       9.846       9.801       9.763       9.712       9.642       9.565       9.495    
        9.340       9.145       9.001       8.841       8.671       8.499       8.339       8.155       7.910       7.665    
        7.498       7.308       7.057       6.803       6.575       6.377       6.096       5.839       5.657       5.468    
        5.305       5.200       5.088       4.960       4.838       4.687       4.524       4.303       4.051       3.774    
        3.416       3.051       2.571       2.046       1.651       1.366       1.153      0.9093      0.5339       0.000    
   2    10.00       9.946       9.894       9.846       9.808       9.771       9.715       9.643       9.573       9.478    
        9.326       9.151       8.990       8.844       8.687       8.509       8.319       8.130       7.901       7.655    
        7.473       7.316       7.048       6.773       6.570       6.347       6.074       5.830       5.621       5.441    
        5.305       5.208       5.114       4.978       4.835       4.684       4.497       4.291       4.046       3.730    
        3.396       3.086       2.582       2.061       1.711       1.457       1.211      0.9392      0.5671       0.000    
   3    10.00       9.937       9.894       9.860       9.824       9.786       9.725       9.640       9.554       9.451    
        9.313       9.159       9.003       8.856       8.668       8.445       8.259       8.096       7.885       7.669    
        7.483       7.259       6.994       6.751       6.531       6.280       6.018       5.776       5.561       5.429    
        5.318       5.226       5.131       4.982       4.831       4.670       4.485       4.255       3.981       3.739    
        3.443       3.021       2.529       2.156       1.858       1.563       1.262      0.9519      0.5375       0.000    
   4    10.00       9.938       9.899       9.869       9.844       9.803       9.733       9.635       9.534       9.430    
        9.299       9.160       9.004       8.819       8.588       8.380       8.248       8.063       7.859       7.690    
        7.434       7.150       6.917       6.701       6.488       6.187       5.897       5.703       5.558       5.445    
        5.346       5.250       5.146       4.972       4.786       4.641       4.445       4.206       3.973       3.762    
        3.426       2.960       2.589       2.275       1.956       1.621       1.258      0.8960      0.4593       0.000    
   5    10.00       9.943       9.907       9.877       9.854       9.813       9.739       9.626       9.513       9.410    
        9.298       9.155       8.954       8.737       8.541       8.378       8.212       8.039       7.848       7.609    
        7.311       7.076       6.883       6.664       6.389       6.077       5.839       5.702       5.583       5.469    
        5.354       5.237       5.118       4.950       4.760       4.584       4.408       4.221       4.010       3.732    
        3.351       2.996       2.680       2.363       2.015       1.625       1.169      0.7542      0.3906       0.000    
   6    10.00       9.952       9.918       9.888       9.857       9.811       9.732       9.611       9.512       9.401    
        9.275       9.098       8.878       8.697       8.516       8.329       8.159       8.005       7.791       7.519    
        7.254       7.030       6.831       6.560       6.262       6.026       5.834       5.706       5.574       5.454    
        5.353       5.225       5.076       4.903       4.718       4.568       4.416       4.247       4.024       3.724    
        3.392       3.050       2.727       2.408       2.030       1.559       1.068      0.7089      0.3651       0.000    
   7    10.00       9.959       9.928       9.897       9.864       9.808       9.702       9.585       9.483       9.345    
        9.216       9.026       8.826       8.640       8.453       8.263       8.097       7.955       7.709       7.418    
        7.178       6.950       6.728       6.465       6.213       5.998       5.830       5.675       5.533       5.441    
        5.338       5.195       5.038       4.864       4.706       4.573       4.431       4.259       4.032       3.760    
        3.431       3.079       2.745       2.392       2.019       1.525       1.021      0.6749      0.3195       0.000    
   8    10.00       9.966       9.938       9.905       9.866       9.776       9.646       9.536       9.407       9.276    
        9.132       8.938       8.767       8.577       8.368       8.181       8.037       7.867       7.633       7.351    
        7.072       6.863       6.678       6.407       6.144       5.953       5.762       5.594       5.499       5.409    
        5.285       5.143       5.011       4.859       4.696       4.559       4.451       4.321       4.100       3.788    
        3.428       3.116       2.804       2.394       1.979       1.427      0.9459      0.6609      0.3059       0.000    
   9    10.00       9.973       9.942       9.904       9.838       9.719       9.582       9.451       9.338       9.203    
        9.033       8.860       8.690       8.507       8.291       8.115       7.980       7.778       7.547       7.258    
        7.017       6.808       6.545       6.267       6.044       5.873       5.683       5.544       5.451       5.348    
        5.235       5.108       4.983       4.851       4.712       4.583       4.477       4.360       4.133       3.796    
        3.465       3.188       2.861       2.466       1.852       1.229      0.9011      0.5588      0.2132       0.000    
  10    10.00       9.973       9.941       9.887       9.785       9.645       9.491       9.390       9.282       9.122    
        8.974       8.802       8.632       8.433       8.233       8.075       7.892       7.683       7.438       7.204    
        6.967       6.644       6.373       6.154       5.966       5.811       5.636       5.495       5.401       5.318    
        5.200       5.063       4.952       4.831       4.708       4.621       4.516       4.381       4.120       3.787    
        3.529       3.287       2.911       2.316       1.604       1.153      0.8175      0.4993      0.2491       0.000    
  11    10.00       9.973       9.930       9.847       9.732       9.574       9.438       9.353       9.225       9.088    
        8.945       8.765       8.561       8.347       8.179       8.008       7.836       7.611       7.373       7.142    
        6.801       6.490       6.275       6.079       5.896       5.725       5.557       5.448       5.372       5.289    
        5.153       5.025       4.935       4.827       4.729       4.632       4.513       4.367       4.122       3.856    
        3.586       3.270       2.860       2.204       1.538       1.084      0.7659      0.5812      0.3211       0.000    
  12    10.00       9.971       9.911       9.803       9.653       9.496       9.388       9.303       9.190       9.067    
        8.910       8.718       8.513       8.324       8.151       7.962       7.764       7.533       7.291       6.975    
        6.638       6.403       6.191       5.990       5.789       5.618       5.502       5.422       5.323       5.214    
        5.093       5.001       4.921       4.837       4.752       4.654       4.527       4.351       4.125       3.886    
        3.596       3.253       2.692       1.954       1.387       1.067      0.8501      0.6166      0.3516       0.000    
  13    10.00       9.961       9.868       9.720       9.563       9.428       9.341       9.266       9.170       9.051    
        8.885       8.684       8.496       8.344       8.145       7.912       7.680       7.430       7.158       6.850    
        6.555       6.300       6.069       5.861       5.667       5.544       5.472       5.356       5.228       5.131    
        5.055       4.983       4.912       4.843       4.761       4.676       4.562       4.361       4.131       3.849    
        3.515       3.080       2.430       1.831       1.420       1.147      0.8936      0.6182      0.3055       0.000    
  14    10.00       9.928       9.795       9.632       9.487       9.380       9.321       9.252       9.160       9.029    
        8.845       8.674       8.519       8.361       8.134       7.859       7.610       7.326       7.024       6.703    
        6.417       6.162       5.934       5.729       5.579       5.494       5.404       5.263       5.156       5.083    
        5.030       4.962       4.903       4.838       4.764       4.697       4.563       4.357       4.115       3.762    
        3.370       2.857       2.356       1.920       1.510       1.191      0.9094      0.6187      0.2757       0.000    
  15    10.00       9.865       9.717       9.571       9.455       9.373       9.308       9.242       9.151       9.028    
        8.866       8.699       8.546       8.322       8.055       7.791       7.514       7.220       6.860       6.518    
        6.253       6.006       5.792       5.636       5.524       5.435       5.324       5.193       5.105       5.054    
        4.992       4.938       4.893       4.832       4.763       4.690       4.547       4.353       4.047       3.667    
        3.261       2.801       2.396       1.947       1.602       1.261      0.9208      0.6130      0.2515       0.000    
  16    10.00       9.843       9.682       9.549       9.448       9.373       9.306       9.246       9.157       9.030    
        8.877       8.716       8.527       8.241       7.950       7.730       7.456       7.062       6.652       6.336    
        6.062       5.857       5.683       5.551       5.426       5.346       5.224       5.118       5.052       4.994    
        4.949       4.916       4.869       4.813       4.752       4.667       4.536       4.301       3.968       3.624    
        3.278       2.836       2.381       1.985       1.661       1.303      0.9184      0.5496      0.2069       0.000    
  17    10.00       9.822       9.660       9.553       9.463       9.387       9.322       9.253       9.157       9.038    
        8.895       8.693       8.432       8.124       7.879       7.670       7.335       6.891       6.476       6.170    
        5.952       5.723       5.530       5.388       5.286       5.184       5.079       5.013       4.960       4.930    
        4.915       4.884       4.836       4.781       4.717       4.626       4.472       4.267       4.000       3.641    
        3.246       2.781       2.362       2.012       1.680       1.313      0.9381      0.5727      0.2422       0.000    
  18    10.00       9.812       9.659       9.567       9.486       9.413       9.347       9.265       9.170       9.042    
        8.870       8.630       8.341       8.079       7.839       7.532       7.143       6.737       6.371       6.071    
        5.802       5.508       5.342       5.224       5.135       5.019       4.952       4.896       4.862       4.869    
        4.865       4.838       4.790       4.729       4.663       4.567       4.421       4.255       4.025       3.695    
        3.184       2.689       2.347       2.015       1.732       1.347      0.9334      0.5620      0.2422       0.000    
  19    10.00       9.820       9.693       9.597       9.511       9.438       9.361       9.284       9.196       9.048    
        8.845       8.589       8.302       8.011       7.692       7.360       7.000       6.609       6.240       5.922    
        5.609       5.354       5.221       5.131       5.004       4.902       4.844       4.793       4.785       4.789    
        4.796       4.781       4.725       4.670       4.617       4.544       4.407       4.227       3.995       3.608    
        3.095       2.675       2.333       2.007       1.690       1.293      0.8972      0.5588      0.2635       0.000    
  20    10.00       9.830       9.721       9.638       9.554       9.467       9.376       9.293       9.205       9.054    
        8.834       8.567       8.233       7.855       7.489       7.218       6.855       6.436       6.112       5.797    
        5.518       5.306       5.146       5.008       4.846       4.775       4.738       4.712       4.717       4.718    
        4.724       4.701       4.656       4.626       4.583       4.510       4.353       4.172       3.908       3.474    
        3.032       2.698       2.304       1.932       1.586       1.194      0.9000      0.5552      0.2463       0.000    
  21    10.00       9.854       9.757       9.672       9.581       9.498       9.398       9.308       9.212       9.041    
        8.804       8.477       8.060       7.617       7.277       7.030       6.690       6.384       6.080       5.739    
        5.474       5.240       5.039       4.777       4.643       4.607       4.551       4.590       4.624       4.622    
        4.619       4.592       4.587       4.573       4.540       4.441       4.288       4.132       3.747       3.297    
        2.967       2.606       2.203       1.856       1.489       1.146      0.8150      0.4891      0.2458       0.000    
  22    10.00       9.886       9.783       9.691       9.603       9.524       9.410       9.294       9.182       9.006    
        8.714       8.303       7.833       7.418       7.126       6.869       6.610       6.389       6.055       5.720    
        5.441       5.106       4.744       4.471       4.370       4.272       4.285       4.391       4.431       4.452    
        4.470       4.470       4.495       4.513       4.483       4.382       4.230       3.942       3.504       3.216    
        2.862       2.471       2.109       1.775       1.463       1.055      0.7073      0.4689      0.2637       0.000    
  23    10.00       9.887       9.789       9.705       9.613       9.508       9.379       9.273       9.175       8.952    
        8.595       8.153       7.724       7.362       7.063       6.846       6.602       6.311       5.992       5.725    
        5.337       4.846       4.458       4.180       3.772       3.772       3.991       4.112       4.201       4.288    
        4.327       4.361       4.399       4.432       4.405       4.306       4.084       3.752       3.397       3.043    
        2.704       2.381       2.032       1.768       1.373      0.9590      0.6880      0.4508      0.2342       0.000    
  24    10.00       9.912       9.800       9.691       9.583       9.463       9.347       9.256       9.146       8.884    
        8.477       8.060       7.704       7.388       7.103       6.817       6.519       6.255       6.002       5.688    
        5.225       4.738       4.277       3.436       2.540       3.062       3.564       3.857       4.021       4.156    
        4.230       4.278       4.326       4.339       4.310       4.180       3.934       3.662       3.273       2.896    
        2.631       2.321       1.991       1.654       1.229      0.8896      0.6615      0.4222      0.1863       0.000    
  25    10.00       9.904       9.775       9.641       9.515       9.406       9.317       9.226       9.090       8.818    
        8.391       8.002       7.729       7.434       7.104       6.808       6.528       6.297       6.062       5.658    
        5.127       4.649       3.911       2.546     -0.3042       2.444       3.237       3.700       3.944       4.086    
        4.171       4.228       4.268       4.269       4.226       4.080       3.818       3.500       3.183       2.866    
        2.564       2.228       1.853       1.496       1.093      0.8165      0.6583      0.4101      0.1520       0.000    
  26    10.00       9.880       9.714       9.563       9.462       9.374       9.286       9.174       9.013       8.677    
        8.280       8.007       7.745       7.452       7.142       6.857       6.594       6.365       6.068       5.639    
        5.172       4.644       3.998       3.259       2.581       2.938       3.410       3.736       3.935       4.065    
        4.146       4.204       4.228       4.216       4.150       3.973       3.679       3.422       3.169       2.828    
        2.515       2.135       1.705       1.322      0.9934      0.7984      0.6222      0.3651      0.1554       0.000    
  27    10.00       9.853       9.676       9.536       9.450       9.335       9.219       9.078       8.862       8.544    
        8.262       8.021       7.755       7.468       7.164       6.939       6.756       6.446       6.073       5.635    
        5.239       4.855       4.335       3.848       3.463       3.521       3.701       3.861       3.987       4.080    
        4.163       4.211       4.216       4.182       4.089       3.885       3.650       3.426       3.130       2.810    
        2.487       2.029       1.536       1.176      0.9475      0.7848      0.5912      0.3857      0.1860       0.000    
  28    10.00       9.834       9.704       9.547       9.401       9.260       9.131       8.965       8.749       8.502    
        8.270       8.054       7.790       7.471       7.200       7.018       6.815       6.474       6.041       5.654    
        5.373       5.086       4.676       4.296       4.051       3.969       3.962       4.011       4.091       4.167    
        4.219       4.230       4.218       4.162       4.038       3.853       3.665       3.399       3.091       2.769    
        2.374       1.942       1.453       1.097      0.9368      0.7813      0.6092      0.4026      0.1867       0.000    
  29    10.00       9.840       9.678       9.512       9.337       9.201       9.055       8.870       8.687       8.491    
        8.284       8.070       7.814       7.544       7.311       7.096       6.825       6.447       6.052       5.751    
        5.511       5.258       4.921       4.582       4.382       4.272       4.203       4.201       4.239       4.263    
        4.265       4.257       4.225       4.146       4.003       3.843       3.667       3.419       3.078       2.670    
        2.308       1.849       1.361       1.081      0.9396      0.7866      0.6043      0.3931      0.1955       0.000    
  30    10.00       9.816       9.653       9.454       9.276       9.151       8.995       8.832       8.691       8.515    
        8.303       8.072       7.838       7.622       7.416       7.173       6.828       6.477       6.159       5.872    
        5.666       5.415       5.109       4.814       4.573       4.475       4.411       4.386       4.362       4.339    
        4.312       4.285       4.232       4.127       3.996       3.868       3.691       3.372       2.950       2.531    
        2.163       1.741       1.369       1.110      0.9607      0.7882      0.5935      0.4119      0.2021       0.000    
  31    10.00       9.792       9.604       9.413       9.252       9.122       8.975       8.830       8.691       8.519    
        8.310       8.078       7.876       7.697       7.504       7.230       6.889       6.583       6.333       6.078    
        5.857       5.574       5.272       5.024       4.778       4.620       4.555       4.492       4.446       4.397    
        4.361       4.309       4.234       4.130       4.002       3.858       3.578       3.220       2.868       2.458    
        2.110       1.688       1.326       1.138      0.9782      0.8157      0.6133      0.4123      0.1954       0.000    
  32    10.00       9.776       9.574       9.410       9.275       9.145       8.991       8.827       8.658       8.496    
        8.290       8.089       7.909       7.713       7.533       7.301       7.037       6.806       6.548       6.284    
        6.062       5.798       5.492       5.225       4.970       4.745       4.659       4.578       4.511       4.443    
        4.390       4.339       4.239       4.108       3.986       3.785       3.437       3.098       2.787       2.413    
        2.007       1.614       1.347       1.202       1.028      0.8225      0.6084      0.3915      0.1954       0.000    
  33    10.00       9.769       9.596       9.465       9.330       9.179       8.995       8.812       8.631       8.446    
        8.275       8.106       7.929       7.742       7.542       7.362       7.169       6.972       6.761       6.503    
        6.244       5.997       5.739       5.428       5.113       4.858       4.729       4.648       4.566       4.480    
        4.416       4.343       4.233       4.105       3.928       3.648       3.291       3.003       2.703       2.266    
        1.896       1.638       1.425       1.253       1.054      0.8384      0.5761      0.3444      0.1552       0.000    
  34    10.00       9.790       9.648       9.525       9.376       9.191       8.997       8.784       8.584       8.430    
        8.276       8.122       7.962       7.769       7.594       7.420       7.252       7.096       6.894       6.632    
        6.388       6.163       5.908       5.585       5.239       4.955       4.788       4.692       4.599       4.502    
        4.418       4.338       4.227       4.068       3.850       3.505       3.156       2.896       2.538       2.152    
        1.923       1.752       1.548       1.326       1.064      0.7603      0.4655      0.2758      0.1143       0.000    
  35    10.00       9.825       9.697       9.572       9.413       9.205       8.983       8.747       8.557       8.425    
        8.322       8.168       7.991       7.786       7.599       7.475       7.353       7.192       6.984       6.734    
        6.501       6.278       6.044       5.681       5.291       5.019       4.837       4.726       4.618       4.507    
        4.422       4.327       4.197       3.988       3.650       3.290       3.056       2.784       2.417       2.184    
        2.024       1.830       1.625       1.408       1.077      0.6467      0.3576      0.2351      0.1194       0.000    
  36    10.00       9.846       9.735       9.615       9.446       9.200       8.929       8.707       8.571       8.469    
        8.330       8.154       7.992       7.812       7.647       7.524       7.408       7.266       7.101       6.871    
        6.629       6.394       6.105       5.716       5.331       5.056       4.882       4.751       4.619       4.506    
        4.410       4.288       4.081       3.770       3.460       3.211       2.991       2.705       2.412       2.257    
        2.094       1.921       1.713       1.434      0.9827      0.5448      0.3360      0.2151      0.1105       0.000    
  37    10.00       9.862       9.777       9.648       9.422       9.154       8.915       8.742       8.629       8.506    
        8.327       8.140       8.000       7.844       7.692       7.574       7.468       7.336       7.163       6.963    
        6.766       6.509       6.150       5.782       5.417       5.106       4.897       4.733       4.612       4.491    
        4.369       4.191       3.882       3.598       3.379       3.164       2.935       2.710       2.500       2.327    
        2.170       1.975       1.739       1.372      0.9013      0.5257      0.3150      0.2002      0.1004       0.000    
  38    10.00       9.883       9.780       9.639       9.406       9.129       8.927       8.799       8.682       8.539    
        8.348       8.152       8.015       7.872       7.720       7.603       7.511       7.397       7.228       7.055    
        6.873       6.581       6.174       5.776       5.418       5.114       4.886       4.705       4.585       4.472    
        4.304       4.011       3.736       3.556       3.338       3.124       2.959       2.768       2.576       2.409    
        2.224       1.958       1.658       1.260      0.7927      0.5043      0.3548      0.2210      9.9203E-02   0.000    
  39    10.00       9.882       9.765       9.618       9.393       9.143       8.961       8.847       8.705       8.546    
        8.392       8.194       8.037       7.902       7.756       7.632       7.528       7.417       7.281       7.125    
        6.915       6.606       6.186       5.742       5.373       5.091       4.833       4.648       4.552       4.445    
        4.190       3.883       3.709       3.503       3.300       3.147       3.009       2.835       2.647       2.491    
        2.223       1.846       1.493       1.062      0.7078      0.5465      0.4069      0.2650      0.1363       0.000    
  40    10.00       9.873       9.770       9.620       9.414       9.204       9.027       8.877       8.709       8.564    
        8.448       8.257       8.059       7.922       7.787       7.648       7.533       7.445       7.327       7.143    
        6.904       6.549       6.123       5.706       5.328       5.034       4.747       4.600       4.515       4.371    
        4.141       3.908       3.672       3.458       3.314       3.181       3.049       2.887       2.713       2.508    
        2.146       1.734       1.352       1.003      0.7597      0.5934      0.4544      0.3207      0.1575       0.000    
  41    10.00       9.890       9.808       9.663       9.451       9.233       9.065       8.930       8.766       8.593    
        8.456       8.282       8.100       7.971       7.815       7.648       7.549       7.455       7.304       7.104    
        6.858       6.513       6.087       5.680       5.303       4.912       4.644       4.564       4.472       4.365    
        4.180       3.900       3.663       3.492       3.348       3.229       3.085       2.929       2.749       2.430    
        2.005       1.603       1.270       1.013      0.8027      0.6483      0.4996      0.3530      0.1859       0.000    
  42    10.00       9.918       9.828       9.689       9.506       9.299       9.109       8.971       8.824       8.634    
        8.459       8.293       8.140       8.016       7.852       7.675       7.556       7.429       7.264       7.039    
        6.758       6.381       6.010       5.607       5.116       4.767       4.625       4.562       4.483       4.366    
        4.151       3.906       3.683       3.511       3.394       3.267       3.139       2.970       2.685       2.261    
        1.890       1.590       1.300       1.009      0.8134      0.6822      0.5395      0.3678      0.2041       0.000    
  43    10.00       9.935       9.839       9.697       9.517       9.346       9.177       9.023       8.842       8.647    
        8.487       8.320       8.168       8.053       7.901       7.703       7.546       7.401       7.176       6.888    
        6.613       6.251       5.907       5.447       4.985       4.754       4.642       4.568       4.493       4.370    
        4.166       3.942       3.727       3.558       3.446       3.320       3.152       2.911       2.495       2.119    
        1.886       1.620       1.315       1.013      0.8059      0.6845      0.5744      0.3980      0.1865       0.000    
  44    10.00       9.928       9.847       9.699       9.536       9.413       9.244       9.036       8.831       8.669    
        8.510       8.344       8.210       8.090       7.914       7.704       7.524       7.351       7.086       6.795    
        6.466       6.103       5.738       5.278       4.931       4.759       4.664       4.600       4.517       4.363    
        4.154       3.974       3.785       3.627       3.513       3.341       3.118       2.774       2.349       2.099    
        1.887       1.608       1.304       1.028      0.8166      0.6869      0.5751      0.3900      0.1719       0.000    
  45    10.00       9.914       9.816       9.697       9.579       9.422       9.246       9.048       8.845       8.683    
        8.518       8.369       8.251       8.115       7.923       7.700       7.497       7.301       7.013       6.671    
        6.292       5.907       5.514       5.175       4.934       4.789       4.696       4.628       4.525       4.399    
        4.217       4.013       3.844       3.682       3.520       3.339       3.094       2.725       2.357       2.065    
        1.822       1.560       1.275       1.027      0.8429      0.7351      0.5680      0.3381      0.1541       0.000    
  46    10.00       9.896       9.795       9.700       9.567       9.388       9.218       9.057       8.857       8.684    
        8.539       8.400       8.282       8.121       7.916       7.717       7.502       7.245       6.934       6.562    
        6.115       5.732       5.417       5.159       4.977       4.848       4.734       4.643       4.562       4.421    
        4.229       4.052       3.886       3.702       3.541       3.366       3.090       2.666       2.278       2.018    
        1.788       1.537       1.269       1.051      0.9079      0.7692      0.5155      0.2534      0.1102       0.000    
  47    10.00       9.890       9.787       9.657       9.503       9.356       9.210       9.036       8.854       8.700    
        8.567       8.443       8.278       8.103       7.920       7.726       7.492       7.193       6.900       6.449    
        5.962       5.663       5.392       5.190       5.020       4.895       4.781       4.670       4.575       4.430    
        4.229       4.054       3.888       3.714       3.573       3.363       2.980       2.598       2.274       1.996    
        1.795       1.557       1.318       1.108      0.9304      0.7063      0.4246      0.2219      9.2409E-02   0.000    
  48    10.00       9.877       9.754       9.616       9.476       9.346       9.198       9.039       8.871       8.719    
        8.584       8.439       8.260       8.080       7.900       7.709       7.485       7.203       6.839       6.390    
        5.969       5.662       5.398       5.213       5.075       4.922       4.807       4.714       4.596       4.400    
        4.203       4.033       3.880       3.750       3.566       3.288       2.923       2.579       2.271       2.026    
        1.809       1.583       1.367       1.129      0.8635      0.5744      0.3631      0.2154      9.7305E-02   0.000    
  49    10.00       9.867       9.733       9.597       9.483       9.348       9.191       9.035       8.899       8.742    
        8.581       8.398       8.222       8.071       7.867       7.681       7.494       7.179       6.819       6.462    
        6.018       5.675       5.413       5.250       5.089       4.924       4.835       4.747       4.560       4.323    
        4.154       4.017       3.906       3.739       3.524       3.276       2.910       2.566       2.325       2.065    
        1.809       1.601       1.371       1.091      0.7651      0.5124      0.3633      0.2345      0.1203       0.000    
  50    10.00       9.872       9.738       9.600       9.475       9.343       9.203       9.049       8.906       8.766    
        8.568       8.378       8.217       8.014       7.807       7.664       7.487       7.243       6.887       6.533    
        6.081       5.649       5.421       5.256       5.088       4.954       4.847       4.729       4.508       4.283    
        4.143       4.030       3.900       3.726       3.528       3.291       2.921       2.568       2.333       2.099    
        1.856       1.593       1.335       1.035      0.7133      0.5244      0.3910      0.2650      0.1598       0.000    

 HEAD WILL BE SAVED ON UNIT   51 AT END OF TIME STEP  65, STRESS PERIOD    2

 DRAWDOWN WILL BE SAVED ON UNIT   52 AT END OF TIME STEP  65, STRESS PERIOD    2
1
  VOLUMETRIC BUDGET FOR ENTIRE MODEL AT END OF TIME STEP 65 IN STRESS PERIOD   2
  ------------------------------------------------------------------------------

     CUMULATIVE VOLUMES      L**3       RATES FOR THIS TIME STEP      L**3/T
     ------------------                 ------------------------

           IN:                                      IN:
           ---                                      ---
             STORAGE =       31870.2773               STORAGE =         464.7607
       CONSTANT HEAD =       25149.9590         CONSTANT HEAD =         403.0387
               WELLS =           0.0000                 WELLS =           0.0000

            TOTAL IN =       57020.2344              TOTAL IN =         867.7994

          OUT:                                     OUT:
          ----                                     ----
             STORAGE =       1.1143E-02               STORAGE =           0.0000
       CONSTANT HEAD =       24520.2227         CONSTANT HEAD =         367.7996
               WELLS =       32500.0000                 WELLS =         500.0000

           TOTAL OUT =       57020.2344             TOTAL OUT =         867.7996

            IN - OUT =           0.0000              IN - OUT =      -1.2207E-04

 PERCENT DISCREPANCY =           0.00     PERCENT DISCREPANCY =           0.00






          TIME SUMMARY AT END OF TIME STEP  65 IN STRESS PERIOD    2
                    SECONDS     MINUTES      HOURS       DAYS        YEARS
                    -----------------------------------------------------------
   TIME STEP LENGTH  86400.      1440.0      24.000      1.0000     2.73785E-03
 STRESS PERIOD TIME 5.61600E+06  93600.      1560.0      65.000     0.17796    
         TOTAL TIME 5.70240E+06  95040.      1584.0      66.000     0.18070    
1
 
 SOLVING FOR HEAD 

 OUTPUT CONTROL FOR STRESS PERIOD    2   TIME STEP  66
    SAVE HEAD FOR ALL LAYERS
    SAVE DRAWDOWN FOR ALL LAYERS
    SAVE BUDGET
    PRINT HEAD FOR ALL LAYERS
    PRINT BUDGET
 UBDSV1 SAVING "         STORAGE" ON UNIT  53 AT TIME STEP 66, STRESS PERIOD   2
 UBDSV2 SAVING "   CONSTANT HEAD" ON UNIT  53 AT TIME STEP 66, STRESS PERIOD   2
 UBDSV1 SAVING "FLOW RIGHT FACE " ON UNIT  53 AT TIME STEP 66, STRESS PERIOD   2
 UBDSV1 SAVING "FLOW FRONT FACE " ON UNIT  53 AT TIME STEP 66, STRESS PERIOD   2
1
              HEAD IN LAYER   1 AT END OF TIME STEP  66 IN STRESS PERIOD    2
  ---------------------------------------------------------------------------

            1           2           3           4           5           6           7           8           9          10
           11          12          13          14          15          16          17          18          19          20
           21          22          23          24          25          26          27          28          29          30
           31          32          33          34          35          36          37          38          39          40
           41          42          43          44          45          46          47          48          49          50
 ........................................................................................................................
   1    10.00       9.951       9.903       9.845       9.800       9.762       9.711       9.641       9.565       9.494    
        9.339       9.144       9.000       8.840       8.669       8.496       8.336       8.153       7.907       7.662    
        7.495       7.304       7.053       6.798       6.571       6.373       6.091       5.834       5.652       5.463    
        5.300       5.195       5.083       4.956       4.834       4.682       4.520       4.299       4.047       3.770    
        3.413       3.049       2.569       2.045       1.650       1.365       1.152      0.9088      0.5336       0.000    
   2    10.00       9.946       9.894       9.846       9.808       9.771       9.714       9.642       9.572       9.477    
        9.324       9.150       8.989       8.842       8.685       8.507       8.316       8.127       7.898       7.651    
        7.469       7.313       7.044       6.768       6.566       6.342       6.069       5.825       5.616       5.436    
        5.299       5.203       5.109       4.973       4.830       4.680       4.493       4.287       4.043       3.727    
        3.393       3.083       2.580       2.059       1.709       1.456       1.211      0.9386      0.5668       0.000    
   3    10.00       9.937       9.894       9.860       9.824       9.785       9.725       9.639       9.554       9.450    
        9.312       9.157       9.001       8.854       8.666       8.442       8.256       8.093       7.882       7.665    
        7.479       7.255       6.990       6.746       6.526       6.275       6.013       5.771       5.556       5.423    
        5.312       5.221       5.126       4.977       4.826       4.666       4.481       4.251       3.977       3.736    
        3.441       3.018       2.528       2.154       1.857       1.562       1.261      0.9513      0.5372       0.000    
   4    10.00       9.937       9.899       9.869       9.843       9.803       9.733       9.634       9.533       9.429    
        9.298       9.159       9.003       8.817       8.585       8.378       8.245       8.060       7.856       7.687    
        7.431       7.146       6.913       6.696       6.483       6.182       5.891       5.697       5.553       5.440    
        5.340       5.244       5.141       4.967       4.782       4.636       4.440       4.202       3.969       3.758    
        3.423       2.957       2.587       2.273       1.954       1.620       1.257      0.8954      0.4590       0.000    
   5    10.00       9.943       9.907       9.877       9.854       9.812       9.738       9.626       9.512       9.409    
        9.297       9.153       8.953       8.735       8.539       8.375       8.209       8.036       7.845       7.606    
        7.307       7.072       6.878       6.659       6.384       6.072       5.834       5.696       5.578       5.463    
        5.348       5.231       5.112       4.944       4.755       4.579       4.404       4.217       4.006       3.728    
        3.348       2.994       2.678       2.361       2.013       1.624       1.169      0.7537      0.3904       0.000    
   6    10.00       9.952       9.917       9.888       9.857       9.810       9.731       9.610       9.511       9.400    
        9.274       9.096       8.876       8.694       8.513       8.326       8.156       8.001       7.787       7.515    
        7.249       7.025       6.826       6.554       6.256       6.020       5.828       5.700       5.568       5.448    
        5.347       5.219       5.071       4.897       4.713       4.562       4.411       4.242       4.020       3.720    
        3.389       3.047       2.725       2.406       2.028       1.558       1.068      0.7084      0.3648       0.000    
   7    10.00       9.959       9.928       9.897       9.863       9.808       9.701       9.584       9.482       9.344    
        9.214       9.024       8.824       8.637       8.450       8.259       8.094       7.951       7.704       7.414    
        7.174       6.944       6.723       6.459       6.207       5.992       5.824       5.669       5.526       5.435    
        5.331       5.189       5.032       4.859       4.701       4.567       4.426       4.254       4.027       3.756    
        3.427       3.076       2.742       2.390       2.017       1.524       1.021      0.6744      0.3193       0.000    
   8    10.00       9.965       9.938       9.904       9.865       9.776       9.646       9.535       9.405       9.274    
        9.131       8.936       8.765       8.574       8.365       8.177       8.033       7.863       7.628       7.346    
        7.067       6.857       6.672       6.401       6.137       5.946       5.755       5.587       5.492       5.402    
        5.278       5.136       5.004       4.853       4.690       4.553       4.446       4.315       4.095       3.784    
        3.425       3.113       2.801       2.392       1.977       1.426      0.9452      0.6604      0.3057       0.000    
   9    10.00       9.973       9.942       9.904       9.837       9.719       9.581       9.450       9.337       9.201    
        9.031       8.858       8.687       8.503       8.287       8.111       7.976       7.774       7.542       7.253    
        7.011       6.801       6.539       6.260       6.037       5.866       5.676       5.537       5.443       5.340    
        5.227       5.100       4.976       4.844       4.705       4.577       4.470       4.355       4.128       3.791    
        3.461       3.185       2.858       2.464       1.850       1.228      0.9004      0.5584      0.2130       0.000    
  10    10.00       9.973       9.941       9.887       9.785       9.644       9.490       9.388       9.281       9.120    
        8.971       8.799       8.629       8.430       8.229       8.070       7.887       7.678       7.432       7.198    
        6.960       6.637       6.366       6.146       5.958       5.803       5.627       5.487       5.393       5.310    
        5.192       5.055       4.944       4.823       4.701       4.614       4.509       4.375       4.115       3.782    
        3.525       3.283       2.908       2.314       1.603       1.152      0.8169      0.4989      0.2489       0.000    
  11    10.00       9.973       9.930       9.846       9.731       9.573       9.437       9.352       9.223       9.086    
        8.943       8.762       8.557       8.343       8.174       8.003       7.831       7.605       7.366       7.136    
        6.794       6.482       6.267       6.070       5.888       5.716       5.549       5.439       5.363       5.280    
        5.144       5.017       4.927       4.819       4.721       4.625       4.506       4.360       4.116       3.851    
        3.581       3.266       2.857       2.202       1.537       1.083      0.7653      0.5807      0.3209       0.000    
  12    10.00       9.971       9.911       9.803       9.652       9.495       9.386       9.301       9.188       9.064    
        8.907       8.715       8.509       8.319       8.147       7.957       7.759       7.527       7.284       6.968    
        6.630       6.395       6.182       5.982       5.780       5.609       5.493       5.412       5.313       5.205    
        5.084       4.992       4.912       4.829       4.744       4.647       4.520       4.344       4.119       3.881    
        3.592       3.249       2.689       1.952       1.386       1.066      0.8494      0.6161      0.3513       0.000    
  13    10.00       9.960       9.867       9.719       9.562       9.427       9.339       9.264       9.168       9.048    
        8.882       8.681       8.492       8.340       8.140       7.907       7.674       7.423       7.151       6.842    
        6.547       6.291       6.060       5.852       5.658       5.534       5.462       5.346       5.219       5.121    
        5.045       4.974       4.903       4.834       4.753       4.668       4.554       4.354       4.125       3.843    
        3.511       3.076       2.427       1.829       1.418       1.146      0.8928      0.6176      0.3053       0.000    
  14    10.00       9.928       9.794       9.631       9.485       9.378       9.319       9.250       9.158       9.026    
        8.842       8.670       8.515       8.356       8.129       7.854       7.603       7.319       7.017       6.695    
        6.408       6.152       5.925       5.719       5.568       5.484       5.394       5.253       5.146       5.073    
        5.020       4.952       4.893       4.829       4.756       4.689       4.555       4.350       4.109       3.757    
        3.365       2.853       2.353       1.918       1.509       1.190      0.9086      0.6182      0.2755       0.000    
  15    10.00       9.865       9.716       9.570       9.453       9.371       9.306       9.240       9.149       9.025    
        8.863       8.695       8.542       8.317       8.050       7.785       7.507       7.212       6.852       6.509    
        6.243       5.996       5.782       5.626       5.513       5.424       5.313       5.182       5.094       5.044    
        4.982       4.928       4.883       4.822       4.754       4.682       4.539       4.346       4.041       3.661    
        3.256       2.797       2.393       1.944       1.600       1.260      0.9200      0.6124      0.2513       0.000    
  16    10.00       9.843       9.681       9.547       9.446       9.371       9.304       9.244       9.155       9.027    
        8.874       8.713       8.522       8.236       7.943       7.723       7.449       7.054       6.643       6.326    
        6.052       5.846       5.672       5.540       5.415       5.335       5.213       5.107       5.041       4.983    
        4.939       4.906       4.859       4.803       4.742       4.658       4.527       4.293       3.961       3.618    
        3.273       2.832       2.378       1.983       1.659       1.302      0.9176      0.5491      0.2068       0.000    
  17    10.00       9.822       9.659       9.551       9.461       9.385       9.319       9.251       9.154       9.035    
        8.891       8.688       8.427       8.118       7.872       7.663       7.327       6.882       6.466       6.160    
        5.941       5.712       5.518       5.377       5.275       5.173       5.067       5.002       4.949       4.919    
        4.905       4.874       4.826       4.771       4.707       4.617       4.463       4.258       3.992       3.634    
        3.241       2.777       2.359       2.010       1.678       1.312      0.9373      0.5723      0.2420       0.000    
  18    10.00       9.811       9.658       9.565       9.484       9.411       9.345       9.262       9.167       9.039    
        8.866       8.626       8.335       8.073       7.832       7.524       7.134       6.728       6.361       6.060    
        5.791       5.497       5.330       5.212       5.124       5.008       4.940       4.884       4.851       4.858    
        4.854       4.827       4.780       4.718       4.653       4.558       4.412       4.247       4.017       3.688    
        3.179       2.686       2.344       2.012       1.730       1.346      0.9326      0.5615      0.2420       0.000    
  19    10.00       9.819       9.692       9.596       9.510       9.436       9.359       9.282       9.194       9.045    
        8.842       8.584       8.297       8.005       7.685       7.352       6.991       6.599       6.229       5.911    
        5.598       5.342       5.209       5.119       4.992       4.889       4.832       4.781       4.773       4.777    
        4.784       4.770       4.714       4.659       4.606       4.534       4.397       4.218       3.987       3.602    
        3.090       2.671       2.331       2.005       1.689       1.291      0.8965      0.5584      0.2633       0.000    
  20    10.00       9.829       9.720       9.636       9.553       9.465       9.374       9.291       9.202       9.051    
        8.830       8.562       8.227       7.848       7.480       7.209       6.845       6.425       6.101       5.785    
        5.506       5.294       5.134       4.995       4.834       4.762       4.725       4.700       4.705       4.706    
        4.712       4.689       4.645       4.615       4.573       4.500       4.344       4.164       3.900       3.468    
        3.028       2.694       2.301       1.930       1.584       1.193      0.8993      0.5548      0.2461       0.000    
  21    10.00       9.854       9.756       9.671       9.580       9.496       9.396       9.306       9.209       9.038    
        8.800       8.472       8.053       7.609       7.268       7.021       6.680       6.373       6.069       5.727    
        5.462       5.228       5.027       4.764       4.631       4.594       4.538       4.577       4.612       4.609    
        4.606       4.580       4.575       4.561       4.529       4.431       4.278       4.123       3.740       3.291    
        2.963       2.602       2.200       1.854       1.488       1.145      0.8144      0.4888      0.2456       0.000    
  22    10.00       9.885       9.783       9.690       9.602       9.523       9.408       9.291       9.179       9.002    
        8.710       8.297       7.825       7.409       7.117       6.859       6.599       6.378       6.043       5.708    
        5.429       5.094       4.731       4.458       4.357       4.259       4.272       4.378       4.418       4.439    
        4.457       4.457       4.483       4.501       4.471       4.371       4.220       3.933       3.497       3.210    
        2.857       2.468       2.107       1.773       1.461       1.054      0.7068      0.4686      0.2635       0.000    
  23    10.00       9.887       9.788       9.704       9.611       9.506       9.377       9.271       9.172       8.949    
        8.590       8.146       7.716       7.353       7.054       6.836       6.591       6.300       5.980       5.713    
        5.325       4.834       4.445       4.167       3.759       3.759       3.978       4.099       4.188       4.274    
        4.314       4.347       4.386       4.419       4.393       4.294       4.074       3.744       3.390       3.037    
        2.699       2.377       2.030       1.767       1.372      0.9582      0.6874      0.4505      0.2340       0.000    
  24    10.00       9.912       9.800       9.690       9.582       9.462       9.345       9.254       9.143       8.880    
        8.471       8.053       7.696       7.379       7.093       6.807       6.508       6.244       5.990       5.677    
        5.212       4.725       4.264       3.423       2.526       3.048       3.550       3.843       4.007       4.143    
        4.217       4.265       4.312       4.326       4.297       4.169       3.924       3.654       3.266       2.891    
        2.627       2.317       1.989       1.652       1.228      0.8889      0.6610      0.4219      0.1862       0.000    
  25    10.00       9.904       9.774       9.640       9.513       9.404       9.315       9.224       9.086       8.814    
        8.385       7.995       7.721       7.425       7.094       6.797       6.517       6.286       6.050       5.646    
        5.115       4.636       3.898       2.532     -0.3190       2.430       3.223       3.687       3.930       4.072    
        4.158       4.215       4.255       4.256       4.213       4.069       3.808       3.492       3.176       2.861    
        2.560       2.225       1.850       1.495       1.092      0.8158      0.6578      0.4098      0.1519       0.000    
  26    10.00       9.879       9.713       9.562       9.460       9.372       9.283       9.171       9.010       8.673    
        8.274       8.000       7.738       7.443       7.133       6.847       6.583       6.354       6.057       5.627    
        5.160       4.631       3.985       3.246       2.567       2.924       3.396       3.722       3.921       4.052    
        4.132       4.191       4.215       4.203       4.138       3.962       3.670       3.414       3.162       2.823    
        2.511       2.132       1.703       1.321      0.9924      0.7977      0.6216      0.3648      0.1553       0.000    
  27    10.00       9.853       9.675       9.534       9.449       9.333       9.217       9.075       8.858       8.539    
        8.256       8.014       7.747       7.460       7.155       6.929       6.746       6.436       6.061       5.623    
        5.226       4.842       4.322       3.834       3.449       3.507       3.687       3.847       3.973       4.066    
        4.150       4.197       4.202       4.169       4.077       3.874       3.641       3.418       3.123       2.805    
        2.483       2.026       1.534       1.175      0.9466      0.7841      0.5907      0.3853      0.1858       0.000    
  28    10.00       9.833       9.703       9.546       9.399       9.258       9.129       8.961       8.745       8.497    
        8.264       8.048       7.783       7.462       7.191       7.008       6.805       6.463       6.029       5.642    
        5.361       5.073       4.663       4.283       4.037       3.956       3.948       3.997       4.078       4.153    
        4.206       4.217       4.205       4.149       4.027       3.842       3.655       3.391       3.085       2.763    
        2.370       1.939       1.451       1.096      0.9358      0.7805      0.6086      0.4022      0.1865       0.000    
  29    10.00       9.839       9.677       9.510       9.335       9.198       9.052       8.866       8.683       8.486    
        8.278       8.064       7.807       7.536       7.303       7.086       6.815       6.436       6.040       5.739    
        5.499       5.246       4.909       4.569       4.369       4.259       4.190       4.188       4.226       4.250    
        4.252       4.244       4.212       4.133       3.992       3.832       3.657       3.411       3.072       2.665    
        2.304       1.846       1.359       1.080      0.9386      0.7858      0.6038      0.3928      0.1954       0.000    
  30    10.00       9.816       9.652       9.452       9.274       9.148       8.992       8.828       8.687       8.510    
        8.297       8.066       7.831       7.615       7.408       7.164       6.819       6.466       6.149       5.861    
        5.654       5.403       5.096       4.802       4.560       4.462       4.398       4.373       4.349       4.326    
        4.299       4.272       4.220       4.115       3.984       3.857       3.682       3.364       2.944       2.526    
        2.160       1.738       1.367       1.109      0.9597      0.7874      0.5929      0.4115      0.2019       0.000    
  31    10.00       9.791       9.603       9.411       9.250       9.119       8.972       8.826       8.686       8.514    
        8.304       8.072       7.869       7.690       7.496       7.221       6.880       6.573       6.322       6.067    
        5.846       5.563       5.260       5.011       4.765       4.607       4.543       4.480       4.433       4.385    
        4.349       4.297       4.222       4.119       3.991       3.848       3.569       3.213       2.862       2.454    
        2.107       1.686       1.324       1.137      0.9772      0.8149      0.6127      0.4119      0.1953       0.000    
  32    10.00       9.776       9.573       9.408       9.273       9.142       8.988       8.823       8.653       8.491    
        8.284       8.083       7.903       7.706       7.526       7.293       7.028       6.797       6.538       6.274    
        6.051       5.786       5.480       5.213       4.958       4.733       4.647       4.565       4.499       4.431    
        4.378       4.328       4.227       4.097       3.976       3.775       3.429       3.092       2.782       2.410    
        2.005       1.612       1.345       1.201       1.027      0.8217      0.6078      0.3912      0.1952       0.000    
  33    10.00       9.769       9.595       9.463       9.328       9.177       8.991       8.808       8.627       8.441    
        8.270       8.100       7.923       7.735       7.535       7.354       7.160       6.964       6.752       6.493    
        6.234       5.986       5.728       5.416       5.101       4.846       4.717       4.636       4.554       4.468    
        4.405       4.331       4.222       4.095       3.918       3.640       3.284       2.998       2.698       2.263    
        1.893       1.636       1.424       1.252       1.053      0.8375      0.5756      0.3441      0.1551       0.000    
  34    10.00       9.789       9.647       9.524       9.374       9.189       8.994       8.780       8.580       8.425    
        8.271       8.117       7.956       7.763       7.587       7.412       7.244       7.087       6.885       6.623    
        6.378       6.152       5.898       5.573       5.228       4.943       4.776       4.681       4.588       4.491    
        4.407       4.327       4.217       4.058       3.841       3.498       3.150       2.891       2.534       2.149    
        1.921       1.751       1.546       1.325       1.063      0.7596      0.4651      0.2755      0.1142       0.000    
  35    10.00       9.824       9.697       9.571       9.411       9.203       8.980       8.743       8.553       8.420    
        8.317       8.162       7.985       7.780       7.592       7.468       7.345       7.184       6.975       6.725    
        6.491       6.269       6.033       5.670       5.280       5.008       4.826       4.715       4.607       4.497    
        4.412       4.317       4.187       3.979       3.642       3.284       3.051       2.780       2.414       2.181    
        2.022       1.828       1.623       1.407       1.076      0.6460      0.3573      0.2349      0.1193       0.000    
  36    10.00       9.845       9.734       9.614       9.444       9.198       8.926       8.703       8.567       8.464    
        8.325       8.149       7.986       7.805       7.640       7.517       7.400       7.258       7.093       6.862    
        6.620       6.385       6.096       5.706       5.321       5.045       4.872       4.741       4.609       4.496    
        4.400       4.278       4.072       3.763       3.454       3.206       2.986       2.702       2.409       2.255    
        2.092       1.919       1.711       1.432      0.9817      0.5443      0.3357      0.2149      0.1104       0.000    
  37    10.00       9.862       9.776       9.647       9.421       9.152       8.912       8.738       8.625       8.502    
        8.322       8.135       7.995       7.838       7.685       7.568       7.461       7.329       7.155       6.955    
        6.757       6.500       6.141       5.773       5.407       5.096       4.887       4.724       4.603       4.482    
        4.360       4.182       3.875       3.592       3.374       3.159       2.932       2.707       2.497       2.324    
        2.167       1.972       1.737       1.371      0.9005      0.5252      0.3147      0.2000      0.1003       0.000    
  38    10.00       9.882       9.779       9.638       9.404       9.127       8.925       8.796       8.679       8.535    
        8.344       8.147       8.010       7.866       7.714       7.597       7.505       7.390       7.220       7.047    
        6.865       6.573       6.165       5.768       5.409       5.105       4.878       4.697       4.577       4.464    
        4.297       4.005       3.731       3.551       3.334       3.120       2.956       2.765       2.573       2.406    
        2.222       1.956       1.657       1.259      0.7921      0.5039      0.3545      0.2209      9.9131E-02   0.000    
  39    10.00       9.881       9.764       9.617       9.391       9.140       8.958       8.844       8.701       8.542    
        8.388       8.190       8.032       7.897       7.750       7.626       7.522       7.411       7.275       7.118    
        6.908       6.598       6.179       5.734       5.365       5.083       4.826       4.641       4.545       4.438    
        4.184       3.878       3.704       3.499       3.296       3.143       3.005       2.832       2.645       2.488    
        2.221       1.844       1.492       1.061      0.7073      0.5461      0.4066      0.2648      0.1362       0.000    
  40    10.00       9.872       9.770       9.620       9.412       9.202       9.025       8.874       8.706       8.560    
        8.444       8.252       8.054       7.917       7.781       7.642       7.527       7.439       7.321       7.136    
        6.897       6.542       6.116       5.700       5.322       5.028       4.741       4.594       4.509       4.366    
        4.136       3.903       3.667       3.454       3.310       3.177       3.046       2.884       2.711       2.506    
        2.144       1.733       1.351       1.002      0.7591      0.5930      0.4541      0.3205      0.1574       0.000    
  41    10.00       9.890       9.808       9.662       9.449       9.231       9.062       8.928       8.763       8.589    
        8.452       8.278       8.096       7.966       7.810       7.643       7.543       7.449       7.298       7.098    
        6.852       6.507       6.082       5.675       5.298       4.907       4.639       4.559       4.468       4.360    
        4.176       3.896       3.659       3.489       3.345       3.226       3.082       2.926       2.747       2.428    
        2.003       1.602       1.269       1.012      0.8021      0.6479      0.4993      0.3528      0.1858       0.000    
  42    10.00       9.918       9.827       9.688       9.505       9.298       9.107       8.969       8.821       8.631    
        8.456       8.290       8.136       8.011       7.848       7.670       7.551       7.424       7.259       7.034    
        6.753       6.376       6.005       5.602       5.112       4.763       4.621       4.558       4.479       4.362    
        4.147       3.903       3.680       3.508       3.391       3.264       3.136       2.967       2.683       2.259    
        1.888       1.588       1.299       1.008      0.8129      0.6818      0.5392      0.3675      0.2040       0.000    
  43    10.00       9.935       9.839       9.696       9.516       9.344       9.176       9.021       8.840       8.644    
        8.484       8.317       8.165       8.050       7.897       7.699       7.541       7.397       7.172       6.884    
        6.609       6.247       5.903       5.444       4.981       4.750       4.638       4.564       4.489       4.366    
        4.162       3.938       3.724       3.555       3.443       3.317       3.149       2.909       2.493       2.117    
        1.885       1.619       1.314       1.012      0.8055      0.6841      0.5741      0.3977      0.1864       0.000    
  44    10.00       9.928       9.846       9.698       9.535       9.412       9.243       9.034       8.829       8.667    
        8.507       8.341       8.207       8.087       7.910       7.701       7.520       7.348       7.082       6.792    
        6.462       6.100       5.735       5.275       4.928       4.756       4.661       4.596       4.513       4.360    
        4.150       3.971       3.782       3.624       3.510       3.339       3.116       2.772       2.347       2.098    
        1.885       1.607       1.303       1.028      0.8162      0.6866      0.5748      0.3898      0.1718       0.000    
  45    10.00       9.914       9.816       9.697       9.578       9.421       9.245       9.047       8.843       8.681    
        8.516       8.367       8.249       8.113       7.921       7.697       7.495       7.298       7.011       6.668    
        6.289       5.904       5.511       5.172       4.931       4.786       4.693       4.625       4.522       4.395    
        4.214       4.010       3.841       3.680       3.517       3.337       3.092       2.724       2.355       2.064    
        1.821       1.559       1.274       1.027      0.8425      0.7347      0.5677      0.3380      0.1541       0.000    
  46    10.00       9.896       9.794       9.700       9.567       9.388       9.217       9.056       8.856       8.683    
        8.538       8.398       8.280       8.119       7.914       7.715       7.500       7.243       6.932       6.560    
        6.113       5.729       5.415       5.157       4.974       4.846       4.732       4.640       4.559       4.418    
        4.226       4.049       3.884       3.700       3.538       3.364       3.089       2.664       2.277       2.017    
        1.788       1.536       1.268       1.051      0.9075      0.7688      0.5153      0.2533      0.1101       0.000    
  47    10.00       9.890       9.787       9.657       9.502       9.356       9.209       9.035       8.853       8.699    
        8.566       8.441       8.276       8.101       7.918       7.725       7.490       7.191       6.898       6.447    
        5.960       5.661       5.389       5.187       5.017       4.892       4.779       4.667       4.572       4.427    
        4.226       4.052       3.886       3.712       3.571       3.361       2.979       2.597       2.273       1.995    
        1.794       1.556       1.317       1.107      0.9300      0.7060      0.4244      0.2218      9.2377E-02   0.000    
  48    10.00       9.877       9.754       9.616       9.476       9.345       9.197       9.038       8.870       8.718    
        8.583       8.438       8.258       8.078       7.899       7.707       7.484       7.201       6.837       6.388    
        5.968       5.660       5.396       5.210       5.072       4.919       4.804       4.711       4.594       4.397    
        4.201       4.030       3.878       3.748       3.564       3.287       2.922       2.578       2.270       2.025    
        1.809       1.582       1.367       1.129      0.8633      0.5742      0.3630      0.2153      9.7277E-02   0.000    
  49    10.00       9.866       9.733       9.597       9.482       9.347       9.190       9.034       8.898       8.741    
        8.580       8.397       8.221       8.070       7.865       7.679       7.493       7.178       6.818       6.460    
        6.016       5.673       5.411       5.248       5.087       4.922       4.832       4.744       4.557       4.321    
        4.152       4.015       3.904       3.737       3.523       3.275       2.909       2.566       2.324       2.064    
        1.809       1.600       1.371       1.091      0.7648      0.5122      0.3632      0.2344      0.1203       0.000    
  50    10.00       9.871       9.738       9.600       9.475       9.342       9.202       9.048       8.905       8.765    
        8.567       8.377       8.215       8.013       7.805       7.663       7.486       7.241       6.885       6.531    
        6.079       5.647       5.419       5.254       5.086       4.951       4.845       4.727       4.506       4.281    
        4.141       4.028       3.898       3.724       3.526       3.290       2.920       2.567       2.332       2.098    
        1.855       1.593       1.334       1.035      0.7132      0.5242      0.3909      0.2649      0.1598       0.000    

 HEAD WILL BE SAVED ON UNIT   51 AT END OF TIME STEP  66, STRESS PERIOD    2

 DRAWDOWN WILL BE SAVED ON UNIT   52 AT END OF TIME STEP  66, STRESS PERIOD    2
1
  VOLUMETRIC BUDGET FOR ENTIRE MODEL AT END OF TIME STEP 66 IN STRESS PERIOD   2
  ------------------------------------------------------------------------------

     CUMULATIVE VOLUMES      L**3       RATES FOR THIS TIME STEP      L**3/T
     ------------------                 ------------------------

           IN:                                      IN:
           ---                                      ---
             STORAGE =       32333.7793               STORAGE =         463.5012
       CONSTANT HEAD =       25553.9980         CONSTANT HEAD =         404.0400
               WELLS =           0.0000                 WELLS =           0.0000

            TOTAL IN =       57887.7773              TOTAL IN =         867.5411

          OUT:                                     OUT:
          ----                                     ----
             STORAGE =       1.1143E-02               STORAGE =           0.0000
       CONSTANT HEAD =       24887.7637         CONSTANT HEAD =         367.5410
               WELLS =       33000.0000                 WELLS =         500.0000

           TOTAL OUT =       57887.7734             TOTAL OUT =         867.5410

            IN - OUT =       3.9063E-03              IN - OUT =       1.2207E-04

 PERCENT DISCREPANCY =           0.00     PERCENT DISCREPANCY =           0.00






          TIME SUMMARY AT END OF TIME STEP  66 IN STRESS PERIOD    2
                    SECONDS     MINUTES      HOURS       DAYS        YEARS
                    -----------------------------------------------------------
   TIME STEP LENGTH  86400.      1440.0      24.000      1.0000     2.73785E-03
 STRESS PERIOD TIME 5.70240E+06  95040.      1584.0      66.000     0.18070    
         TOTAL TIME 5.78880E+06  96480.      1608.0      67.000     0.18344    
1
 
 SOLVING FOR HEAD 

 OUTPUT CONTROL FOR STRESS PERIOD    2   TIME STEP  67
    SAVE HEAD FOR ALL LAYERS
    SAVE DRAWDOWN FOR ALL LAYERS
    SAVE BUDGET
    PRINT HEAD FOR ALL LAYERS
    PRINT BUDGET
 UBDSV1 SAVING "         STORAGE" ON UNIT  53 AT TIME STEP 67, STRESS PERIOD   2
 UBDSV2 SAVING "   CONSTANT HEAD" ON UNIT  53 AT TIME STEP 67, STRESS PERIOD   2
 UBDSV1 SAVING "FLOW RIGHT FACE " ON UNIT  53 AT TIME STEP 67, STRESS PERIOD   2
 UBDSV1 SAVING "FLOW FRONT FACE " ON UNIT  53 AT TIME STEP 67, STRESS PERIOD   2
1
              HEAD IN LAYER   1 AT END OF TIME STEP  67 IN STRESS PERIOD    2
  ---------------------------------------------------------------------------

            1           2           3           4           5           6           7           8           9          10
           11          12          13          14          15          16          17          18          19          20
           21          22          23          24          25          26          27          28          29          30
           31          32          33          34          35          36          37          38          39          40
           41          42          43          44          45          46          47          48          49          50
 ........................................................................................................................
   1    10.00       9.951       9.903       9.845       9.800       9.762       9.711       9.641       9.564       9.493    
        9.337       9.142       8.998       8.838       8.667       8.494       8.334       8.150       7.904       7.659    
        7.492       7.301       7.049       6.794       6.566       6.368       6.086       5.829       5.647       5.458    
        5.295       5.190       5.078       4.951       4.829       4.678       4.515       4.296       4.044       3.767    
        3.410       3.046       2.567       2.043       1.649       1.364       1.151      0.9082      0.5332       0.000    
   2    10.00       9.946       9.894       9.845       9.807       9.770       9.714       9.642       9.571       9.476    
        9.323       9.149       8.987       8.841       8.683       8.504       8.314       8.124       7.895       7.648    
        7.466       7.309       7.040       6.764       6.562       6.337       6.065       5.820       5.611       5.431    
        5.294       5.198       5.104       4.968       4.825       4.675       4.489       4.284       4.039       3.724    
        3.390       3.081       2.578       2.058       1.708       1.455       1.210      0.9380      0.5664       0.000    
   3    10.00       9.937       9.894       9.860       9.823       9.785       9.724       9.639       9.553       9.449    
        9.311       9.156       9.000       8.852       8.664       8.440       8.254       8.090       7.879       7.662    
        7.475       7.251       6.986       6.742       6.522       6.270       6.008       5.765       5.551       5.418    
        5.307       5.215       5.121       4.972       4.821       4.661       4.476       4.247       3.974       3.732    
        3.438       3.016       2.526       2.153       1.855       1.561       1.260      0.9507      0.5369       0.000    
   4    10.00       9.937       9.899       9.868       9.843       9.802       9.732       9.634       9.532       9.429    
        9.297       9.157       9.001       8.815       8.583       8.375       8.242       8.057       7.853       7.684    
        7.427       7.142       6.908       6.692       6.478       6.177       5.886       5.692       5.547       5.434    
        5.335       5.239       5.136       4.962       4.777       4.632       4.436       4.198       3.966       3.755    
        3.420       2.955       2.585       2.272       1.953       1.619       1.256      0.8949      0.4587       0.000    
   5    10.00       9.942       9.907       9.877       9.854       9.812       9.738       9.625       9.512       9.408    
        9.295       9.152       8.951       8.733       8.536       8.372       8.206       8.033       7.842       7.602    
        7.303       7.067       6.874       6.654       6.379       6.066       5.828       5.690       5.572       5.457    
        5.343       5.225       5.107       4.939       4.750       4.574       4.399       4.213       4.002       3.724    
        3.345       2.991       2.676       2.360       2.012       1.623       1.168      0.7532      0.3901       0.000    
   6    10.00       9.952       9.917       9.888       9.856       9.810       9.731       9.609       9.510       9.399    
        9.273       9.095       8.874       8.692       8.511       8.323       8.153       7.998       7.784       7.510    
        7.245       7.020       6.821       6.549       6.250       6.014       5.822       5.694       5.561       5.442    
        5.341       5.213       5.065       4.892       4.707       4.557       4.406       4.237       4.016       3.717    
        3.386       3.045       2.723       2.404       2.027       1.557       1.067      0.7079      0.3646       0.000    
   7    10.00       9.958       9.928       9.897       9.863       9.807       9.701       9.584       9.481       9.343    
        9.213       9.023       8.822       8.635       8.448       8.256       8.090       7.947       7.700       7.409    
        7.169       6.939       6.717       6.453       6.200       5.986       5.817       5.663       5.520       5.428    
        5.325       5.182       5.026       4.853       4.695       4.562       4.421       4.249       4.023       3.752    
        3.424       3.073       2.740       2.388       2.016       1.523       1.020      0.6740      0.3191       0.000    
   8    10.00       9.965       9.938       9.904       9.865       9.775       9.645       9.534       9.404       9.273    
        9.129       8.933       8.762       8.571       8.362       8.173       8.029       7.859       7.624       7.341    
        7.061       6.851       6.666       6.395       6.131       5.939       5.748       5.580       5.484       5.395    
        5.271       5.129       4.997       4.846       4.684       4.547       4.440       4.310       4.090       3.780    
        3.421       3.110       2.799       2.390       1.975       1.425      0.9445      0.6600      0.3055       0.000    
   9    10.00       9.973       9.942       9.903       9.837       9.718       9.580       9.449       9.335       9.199    
        9.029       8.855       8.684       8.500       8.283       8.107       7.972       7.769       7.537       7.247    
        7.005       6.795       6.532       6.252       6.029       5.858       5.668       5.529       5.436       5.333    
        5.220       5.093       4.969       4.837       4.698       4.570       4.464       4.349       4.122       3.786    
        3.457       3.182       2.855       2.461       1.848       1.227      0.8997      0.5580      0.2129       0.000    
  10    10.00       9.973       9.940       9.887       9.784       9.643       9.489       9.387       9.279       9.118    
        8.969       8.796       8.626       8.426       8.225       8.066       7.882       7.673       7.427       7.192    
        6.954       6.630       6.358       6.138       5.950       5.795       5.619       5.479       5.385       5.302    
        5.184       5.047       4.936       4.816       4.694       4.607       4.502       4.369       4.109       3.777    
        3.521       3.279       2.905       2.312       1.601       1.151      0.8162      0.4985      0.2487       0.000    
  11    10.00       9.973       9.930       9.846       9.731       9.572       9.435       9.350       9.221       9.083    
        8.940       8.759       8.554       8.339       8.170       7.998       7.826       7.600       7.360       7.129    
        6.787       6.475       6.259       6.062       5.879       5.707       5.540       5.431       5.355       5.272    
        5.136       5.009       4.919       4.811       4.714       4.618       4.499       4.354       4.110       3.846    
        3.577       3.262       2.854       2.200       1.536       1.082      0.7646      0.5802      0.3206       0.000    
  12    10.00       9.970       9.910       9.802       9.651       9.493       9.385       9.299       9.186       9.062    
        8.904       8.711       8.505       8.315       8.142       7.952       7.753       7.521       7.277       6.961    
        6.623       6.387       6.174       5.973       5.771       5.600       5.484       5.403       5.304       5.196    
        5.075       4.983       4.904       4.821       4.736       4.639       4.513       4.338       4.113       3.876    
        3.587       3.245       2.686       1.950       1.385       1.065      0.8486      0.6156      0.3510       0.000    
  13    10.00       9.960       9.867       9.719       9.561       9.425       9.337       9.262       9.165       9.045    
        8.879       8.677       8.488       8.335       8.135       7.901       7.668       7.417       7.144       6.834    
        6.538       6.282       6.051       5.842       5.648       5.524       5.452       5.336       5.209       5.111    
        5.036       4.965       4.894       4.826       4.744       4.660       4.546       4.347       4.119       3.838    
        3.506       3.073       2.424       1.828       1.417       1.145      0.8920      0.6171      0.3050       0.000    
  14    10.00       9.928       9.794       9.630       9.484       9.376       9.317       9.248       9.155       9.023    
        8.839       8.666       8.511       8.352       8.124       7.848       7.597       7.312       7.009       6.687    
        6.399       6.143       5.915       5.709       5.558       5.474       5.384       5.243       5.136       5.063    
        5.010       4.943       4.884       4.820       4.747       4.680       4.547       4.343       4.102       3.751    
        3.361       2.849       2.351       1.916       1.507       1.189      0.9078      0.6176      0.2752       0.000    
  15    10.00       9.865       9.715       9.569       9.451       9.369       9.304       9.238       9.146       9.022    
        8.859       8.691       8.538       8.312       8.044       7.779       7.500       7.205       6.844       6.500    
        6.234       5.986       5.772       5.616       5.503       5.414       5.303       5.172       5.084       5.034    
        4.972       4.918       4.873       4.813       4.745       4.673       4.531       4.338       4.034       3.656    
        3.252       2.793       2.390       1.942       1.599       1.259      0.9192      0.6119      0.2511       0.000    
  16    10.00       9.842       9.680       9.546       9.445       9.369       9.302       9.241       9.152       9.024    
        8.870       8.709       8.518       8.231       7.937       7.716       7.442       7.046       6.634       6.316    
        6.042       5.836       5.662       5.529       5.405       5.324       5.203       5.096       5.031       4.973    
        4.929       4.896       4.849       4.793       4.733       4.649       4.519       4.285       3.954       3.612    
        3.268       2.828       2.375       1.981       1.657       1.301      0.9168      0.5487      0.2066       0.000    
  17    10.00       9.821       9.658       9.550       9.460       9.383       9.317       9.249       9.152       9.032    
        8.888       8.684       8.422       8.112       7.865       7.656       7.319       6.873       6.456       6.150    
        5.931       5.701       5.507       5.366       5.264       5.162       5.056       4.991       4.938       4.908    
        4.894       4.863       4.816       4.761       4.698       4.607       4.454       4.250       3.985       3.628    
        3.236       2.774       2.356       2.008       1.676       1.310      0.9364      0.5718      0.2418       0.000    
  18    10.00       9.811       9.657       9.564       9.482       9.409       9.343       9.260       9.165       9.036    
        8.863       8.621       8.330       8.067       7.825       7.517       7.125       6.718       6.351       6.050    
        5.780       5.485       5.318       5.201       5.112       4.996       4.928       4.872       4.839       4.847    
        4.843       4.816       4.769       4.708       4.643       4.548       4.403       4.238       4.009       3.682    
        3.174       2.682       2.341       2.010       1.729       1.344      0.9318      0.5611      0.2418       0.000    
  19    10.00       9.819       9.691       9.595       9.508       9.434       9.356       9.279       9.191       9.042    
        8.838       8.580       8.291       7.998       7.678       7.343       6.981       6.589       6.218       5.899    
        5.586       5.330       5.197       5.107       4.980       4.878       4.820       4.770       4.761       4.766    
        4.773       4.759       4.703       4.648       4.596       4.524       4.388       4.209       3.979       3.595    
        3.085       2.667       2.328       2.003       1.687       1.290      0.8957      0.5580      0.2631       0.000    
  20    10.00       9.829       9.719       9.635       9.551       9.464       9.372       9.289       9.200       9.048    
        8.826       8.557       8.221       7.841       7.472       7.200       6.835       6.415       6.090       5.774    
        5.494       5.282       5.122       4.983       4.822       4.750       4.713       4.688       4.693       4.694    
        4.700       4.678       4.634       4.604       4.562       4.490       4.334       4.155       3.892       3.462    
        3.023       2.690       2.299       1.928       1.583       1.192      0.8986      0.5544      0.2459       0.000    
  21    10.00       9.853       9.755       9.670       9.579       9.495       9.394       9.303       9.206       9.035    
        8.795       8.466       8.046       7.601       7.260       7.011       6.669       6.362       6.058       5.716    
        5.450       5.216       5.014       4.752       4.618       4.582       4.526       4.565       4.600       4.597    
        4.594       4.568       4.563       4.550       4.518       4.420       4.268       4.114       3.733       3.285    
        2.958       2.598       2.198       1.852       1.486       1.144      0.8138      0.4884      0.2455       0.000    
  22    10.00       9.885       9.782       9.689       9.601       9.521       9.406       9.289       9.176       8.999    
        8.705       8.291       7.818       7.400       7.107       6.849       6.589       6.367       6.032       5.696    
        5.417       5.082       4.719       4.445       4.345       4.246       4.260       4.365       4.405       4.426    
        4.445       4.444       4.471       4.489       4.460       4.360       4.211       3.925       3.490       3.204    
        2.853       2.465       2.104       1.771       1.460       1.053      0.7063      0.4682      0.2633       0.000    
  23    10.00       9.886       9.787       9.703       9.610       9.505       9.375       9.268       9.169       8.945    
        8.585       8.140       7.708       7.344       7.044       6.826       6.581       6.289       5.969       5.701    
        5.313       4.821       4.433       4.154       3.746       3.746       3.964       4.086       4.175       4.261    
        4.301       4.334       4.373       4.406       4.381       4.283       4.065       3.736       3.384       3.032    
        2.695       2.374       2.027       1.765       1.370      0.9573      0.6869      0.4502      0.2338       0.000    
  24    10.00       9.911       9.799       9.689       9.581       9.460       9.343       9.251       9.140       8.876    
        8.466       8.046       7.688       7.371       7.084       6.797       6.497       6.233       5.979       5.665    
        5.200       4.713       4.251       3.410       2.512       3.034       3.536       3.829       3.994       4.129    
        4.203       4.252       4.299       4.313       4.285       4.158       3.914       3.646       3.260       2.886    
        2.623       2.314       1.986       1.650       1.227      0.8881      0.6605      0.4215      0.1861       0.000    
  25    10.00       9.903       9.773       9.639       9.512       9.402       9.312       9.221       9.083       8.810    
        8.379       7.988       7.713       7.417       7.084       6.787       6.506       6.275       6.039       5.634    
        5.102       4.623       3.885       2.518     -0.3336       2.416       3.209       3.673       3.917       4.059    
        4.144       4.201       4.242       4.243       4.201       4.058       3.798       3.484       3.170       2.855    
        2.556       2.222       1.848       1.493       1.091      0.8151      0.6572      0.4094      0.1518       0.000    
  26    10.00       9.879       9.712       9.560       9.458       9.369       9.281       9.168       9.006       8.668    
        8.268       7.994       7.730       7.434       7.123       6.837       6.573       6.343       6.045       5.615    
        5.147       4.618       3.971       3.232       2.553       2.910       3.382       3.708       3.907       4.038    
        4.118       4.177       4.201       4.190       4.125       3.951       3.660       3.407       3.155       2.817    
        2.507       2.129       1.701       1.319      0.9914      0.7969      0.6211      0.3645      0.1552       0.000    
  27    10.00       9.852       9.674       9.533       9.447       9.331       9.214       9.072       8.854       8.534    
        8.250       8.007       7.740       7.451       7.146       6.919       6.736       6.425       6.050       5.611    
        5.214       4.830       4.309       3.821       3.436       3.493       3.674       3.833       3.960       4.052    
        4.136       4.184       4.189       4.156       4.065       3.863       3.632       3.409       3.117       2.799    
        2.479       2.023       1.532       1.174      0.9456      0.7833      0.5901      0.3850      0.1857       0.000    
  28    10.00       9.833       9.702       9.544       9.397       9.255       9.126       8.958       8.741       8.492    
        8.258       8.041       7.776       7.454       7.182       6.999       6.795       6.453       6.018       5.631    
        5.349       5.061       4.650       4.270       4.024       3.942       3.935       3.984       4.064       4.140    
        4.193       4.204       4.192       4.137       4.015       3.832       3.646       3.383       3.078       2.758    
        2.366       1.936       1.450       1.094      0.9349      0.7798      0.6080      0.4019      0.1864       0.000    
  29    10.00       9.838       9.676       9.508       9.332       9.195       9.049       8.862       8.679       8.481    
        8.273       8.058       7.800       7.528       7.294       7.077       6.805       6.426       6.029       5.727    
        5.487       5.233       4.896       4.556       4.356       4.246       4.177       4.174       4.213       4.237    
        4.239       4.231       4.200       4.121       3.981       3.822       3.648       3.403       3.065       2.659    
        2.301       1.844       1.357       1.078      0.9376      0.7850      0.6032      0.3924      0.1952       0.000    
  30    10.00       9.815       9.651       9.450       9.271       9.145       8.989       8.824       8.682       8.505    
        8.292       8.060       7.824       7.607       7.400       7.155       6.809       6.456       6.138       5.850    
        5.642       5.392       5.084       4.789       4.547       4.449       4.385       4.360       4.336       4.313    
        4.286       4.260       4.208       4.104       3.973       3.847       3.672       3.356       2.938       2.522    
        2.156       1.736       1.366       1.107      0.9587      0.7866      0.5924      0.4112      0.2017       0.000    
  31    10.00       9.791       9.602       9.409       9.248       9.117       8.968       8.823       8.682       8.509    
        8.299       8.066       7.862       7.683       7.488       7.213       6.871       6.563       6.312       6.056    
        5.834       5.551       5.248       4.999       4.752       4.594       4.530       4.467       4.421       4.372    
        4.336       4.285       4.210       4.108       3.981       3.838       3.560       3.206       2.856       2.450    
        2.103       1.684       1.323       1.135      0.9762      0.8141      0.6121      0.4115      0.1951       0.000    
  32    10.00       9.775       9.571       9.406       9.270       9.140       8.985       8.819       8.649       8.486    
        8.279       8.077       7.897       7.699       7.518       7.285       7.019       6.788       6.529       6.263    
        6.040       5.775       5.469       5.201       4.945       4.720       4.634       4.553       4.487       4.419    
        4.366       4.316       4.216       4.086       3.965       3.766       3.421       3.086       2.777       2.406    
        2.002       1.610       1.344       1.200       1.026      0.8209      0.6072      0.3908      0.1950       0.000    
  33    10.00       9.768       9.594       9.462       9.326       9.174       8.988       8.805       8.623       8.437    
        8.264       8.095       7.916       7.728       7.528       7.347       7.152       6.955       6.743       6.483    
        6.224       5.975       5.717       5.404       5.089       4.834       4.705       4.625       4.543       4.456    
        4.393       4.320       4.211       4.085       3.908       3.632       3.277       2.992       2.693       2.259    
        1.891       1.634       1.422       1.251       1.052      0.8367      0.5750      0.3437      0.1549       0.000    
  34    10.00       9.789       9.646       9.522       9.372       9.186       8.990       8.776       8.576       8.420    
        8.266       8.111       7.950       7.756       7.580       7.405       7.237       7.079       6.876       6.613    
        6.368       6.142       5.887       5.562       5.216       4.932       4.765       4.669       4.577       4.480    
        4.396       4.316       4.207       4.049       3.832       3.491       3.144       2.886       2.530       2.146    
        1.918       1.749       1.544       1.323       1.062      0.7588      0.4647      0.2752      0.1141       0.000    
  35    10.00       9.824       9.696       9.570       9.409       9.200       8.977       8.739       8.549       8.415    
        8.312       8.157       7.979       7.773       7.585       7.461       7.338       7.176       6.967       6.716    
        6.482       6.259       6.023       5.660       5.269       4.997       4.815       4.704       4.597       4.486    
        4.401       4.306       4.177       3.971       3.635       3.278       3.046       2.776       2.411       2.179    
        2.019       1.826       1.621       1.405       1.075      0.6454      0.3570      0.2347      0.1192       0.000    
  36    10.00       9.845       9.733       9.613       9.443       9.196       8.923       8.700       8.563       8.460    
        8.320       8.144       7.981       7.799       7.634       7.511       7.393       7.251       7.085       6.854    
        6.611       6.375       6.086       5.696       5.310       5.035       4.861       4.731       4.598       4.486    
        4.390       4.269       4.063       3.756       3.449       3.201       2.982       2.698       2.406       2.252    
        2.090       1.916       1.709       1.431      0.9808      0.5438      0.3354      0.2147      0.1103       0.000    
  37    10.00       9.861       9.775       9.646       9.419       9.149       8.909       8.735       8.622       8.498    
        8.317       8.130       7.989       7.832       7.679       7.561       7.454       7.322       7.148       6.948    
        6.749       6.492       6.131       5.763       5.397       5.086       4.877       4.714       4.594       4.473    
        4.351       4.174       3.868       3.586       3.369       3.155       2.928       2.704       2.494       2.321    
        2.165       1.970       1.735       1.369      0.8996      0.5248      0.3145      0.1999      0.1002       0.000    
  38    10.00       9.882       9.779       9.637       9.403       9.125       8.922       8.792       8.675       8.531    
        8.340       8.142       8.004       7.860       7.708       7.591       7.498       7.383       7.213       7.040    
        6.857       6.565       6.157       5.759       5.401       5.097       4.870       4.689       4.569       4.456    
        4.289       3.998       3.725       3.546       3.330       3.117       2.952       2.762       2.570       2.404    
        2.219       1.954       1.655       1.258      0.7914      0.5035      0.3542      0.2207      9.9056E-02   0.000    
  39    10.00       9.881       9.764       9.616       9.390       9.138       8.955       8.841       8.698       8.539    
        8.384       8.185       8.027       7.891       7.744       7.620       7.516       7.404       7.268       7.111    
        6.901       6.591       6.171       5.727       5.358       5.076       4.819       4.634       4.539       4.432    
        4.178       3.873       3.699       3.494       3.292       3.140       3.002       2.829       2.642       2.486    
        2.219       1.842       1.490       1.060      0.7068      0.5457      0.4063      0.2646      0.1361       0.000    
  40    10.00       9.872       9.769       9.619       9.411       9.200       9.022       8.871       8.702       8.556    
        8.440       8.248       8.050       7.912       7.776       7.636       7.521       7.433       7.314       7.130    
        6.890       6.536       6.109       5.693       5.315       5.022       4.735       4.589       4.504       4.361    
        4.131       3.898       3.663       3.450       3.307       3.174       3.043       2.881       2.708       2.503    
        2.142       1.731       1.349       1.001      0.7586      0.5926      0.4537      0.3203      0.1573       0.000    
  41    10.00       9.890       9.808       9.662       9.448       9.229       9.060       8.925       8.760       8.586    
        8.449       8.274       8.092       7.961       7.804       7.637       7.538       7.444       7.292       7.093    
        6.847       6.502       6.076       5.669       5.292       4.901       4.635       4.554       4.463       4.356    
        4.172       3.892       3.655       3.485       3.341       3.223       3.078       2.923       2.744       2.425    
        2.001       1.601       1.268       1.012      0.8016      0.6475      0.4990      0.3526      0.1857       0.000    
  42    10.00       9.917       9.827       9.687       9.504       9.296       9.105       8.967       8.818       8.628    
        8.453       8.286       8.132       8.007       7.843       7.665       7.546       7.419       7.254       7.029    
        6.748       6.371       6.001       5.598       5.107       4.759       4.617       4.554       4.475       4.358    
        4.143       3.899       3.676       3.505       3.388       3.261       3.133       2.964       2.680       2.258    
        1.887       1.587       1.298       1.008      0.8124      0.6814      0.5389      0.3673      0.2038       0.000    
  43    10.00       9.935       9.838       9.696       9.515       9.343       9.174       9.019       8.837       8.642    
        8.481       8.314       8.161       8.046       7.893       7.695       7.537       7.393       7.168       6.880    
        6.605       6.243       5.899       5.440       4.978       4.747       4.634       4.561       4.485       4.363    
        4.159       3.935       3.721       3.551       3.440       3.314       3.146       2.906       2.491       2.116    
        1.883       1.618       1.313       1.012      0.8050      0.6837      0.5738      0.3975      0.1863       0.000    
  44    10.00       9.928       9.846       9.698       9.535       9.411       9.242       9.032       8.827       8.665    
        8.505       8.338       8.204       8.084       7.907       7.697       7.517       7.344       7.079       6.788    
        6.459       6.097       5.732       5.272       4.925       4.753       4.657       4.593       4.510       4.356    
        4.147       3.967       3.779       3.621       3.507       3.336       3.113       2.769       2.346       2.096    
        1.884       1.606       1.303       1.027      0.8158      0.6862      0.5745      0.3896      0.1717       0.000    
  45    10.00       9.913       9.815       9.696       9.578       9.420       9.244       9.046       8.841       8.679    
        8.514       8.364       8.247       8.110       7.918       7.694       7.492       7.295       7.008       6.666    
        6.286       5.901       5.508       5.169       4.928       4.783       4.690       4.622       4.518       4.392    
        4.211       4.007       3.838       3.677       3.515       3.334       3.089       2.722       2.354       2.062    
        1.820       1.558       1.274       1.027      0.8421      0.7344      0.5674      0.3378      0.1540       0.000    
  46    10.00       9.896       9.794       9.700       9.566       9.387       9.216       9.055       8.855       8.682    
        8.536       8.396       8.278       8.117       7.912       7.713       7.498       7.241       6.929       6.557    
        6.110       5.727       5.412       5.154       4.971       4.843       4.729       4.637       4.556       4.415    
        4.223       4.046       3.881       3.697       3.536       3.362       3.087       2.663       2.276       2.016    
        1.787       1.535       1.268       1.050      0.9071      0.7685      0.5150      0.2532      0.1101       0.000    
  47    10.00       9.890       9.787       9.656       9.502       9.355       9.208       9.034       8.852       8.697    
        8.564       8.440       8.275       8.100       7.916       7.723       7.488       7.189       6.896       6.445    
        5.958       5.658       5.387       5.185       5.015       4.889       4.776       4.664       4.569       4.424    
        4.224       4.049       3.883       3.709       3.569       3.359       2.977       2.596       2.272       1.994    
        1.794       1.556       1.317       1.107      0.9297      0.7058      0.4243      0.2217      9.2344E-02   0.000    
  48    10.00       9.877       9.754       9.616       9.475       9.345       9.197       9.037       8.869       8.717    
        8.582       8.436       8.257       8.076       7.897       7.706       7.482       7.200       6.835       6.386    
        5.966       5.658       5.394       5.208       5.070       4.917       4.801       4.709       4.591       4.395    
        4.198       4.028       3.875       3.746       3.562       3.285       2.921       2.577       2.269       2.025    
        1.808       1.581       1.366       1.129      0.8630      0.5740      0.3629      0.2152      9.7247E-02   0.000    
  49    10.00       9.866       9.732       9.597       9.482       9.347       9.190       9.033       8.897       8.740    
        8.578       8.396       8.219       8.068       7.864       7.678       7.491       7.176       6.816       6.458    
        6.014       5.671       5.408       5.246       5.084       4.919       4.830       4.742       4.555       4.318    
        4.150       4.013       3.902       3.735       3.521       3.274       2.908       2.565       2.323       2.063    
        1.808       1.600       1.370       1.091      0.7646      0.5121      0.3631      0.2344      0.1202       0.000    
  50    10.00       9.871       9.737       9.599       9.474       9.342       9.202       9.047       8.904       8.764    
        8.566       8.375       8.214       8.011       7.804       7.661       7.484       7.240       6.883       6.529    
        6.077       5.645       5.417       5.252       5.083       4.949       4.842       4.724       4.503       4.278    
        4.139       4.026       3.897       3.723       3.525       3.288       2.918       2.566       2.331       2.097    
        1.855       1.592       1.334       1.034      0.7130      0.5241      0.3908      0.2649      0.1597       0.000    

 HEAD WILL BE SAVED ON UNIT   51 AT END OF TIME STEP  67, STRESS PERIOD    2

 DRAWDOWN WILL BE SAVED ON UNIT   52 AT END OF TIME STEP  67, STRESS PERIOD    2
1
  VOLUMETRIC BUDGET FOR ENTIRE MODEL AT END OF TIME STEP 67 IN STRESS PERIOD   2
  ------------------------------------------------------------------------------

     CUMULATIVE VOLUMES      L**3       RATES FOR THIS TIME STEP      L**3/T
     ------------------                 ------------------------

           IN:                                      IN:
           ---                                      ---
             STORAGE =       32796.0078               STORAGE =         462.2299
       CONSTANT HEAD =       25959.0430         CONSTANT HEAD =         405.0458
               WELLS =           0.0000                 WELLS =           0.0000

            TOTAL IN =       58755.0508              TOTAL IN =         867.2758

          OUT:                                     OUT:
          ----                                     ----
             STORAGE =       1.1143E-02               STORAGE =           0.0000
       CONSTANT HEAD =       25255.0391         CONSTANT HEAD =         367.2755
               WELLS =       33500.0000                 WELLS =         500.0000

           TOTAL OUT =       58755.0508             TOTAL OUT =         867.2755

            IN - OUT =           0.0000              IN - OUT =       2.4414E-04

 PERCENT DISCREPANCY =           0.00     PERCENT DISCREPANCY =           0.00






          TIME SUMMARY AT END OF TIME STEP  67 IN STRESS PERIOD    2
                    SECONDS     MINUTES      HOURS       DAYS        YEARS
                    -----------------------------------------------------------
   TIME STEP LENGTH  86400.      1440.0      24.000      1.0000     2.73785E-03
 STRESS PERIOD TIME 5.78880E+06  96480.      1608.0      67.000     0.18344    
         TOTAL TIME 5.87520E+06  97920.      1632.0      68.000     0.18617    
1
 
 SOLVING FOR HEAD 

 OUTPUT CONTROL FOR STRESS PERIOD    2   TIME STEP  68
    SAVE HEAD FOR ALL LAYERS
    SAVE DRAWDOWN FOR ALL LAYERS
    SAVE BUDGET
    PRINT HEAD FOR ALL LAYERS
    PRINT BUDGET
 UBDSV1 SAVING "         STORAGE" ON UNIT  53 AT TIME STEP 68, STRESS PERIOD   2
 UBDSV2 SAVING "   CONSTANT HEAD" ON UNIT  53 AT TIME STEP 68, STRESS PERIOD   2
 UBDSV1 SAVING "FLOW RIGHT FACE " ON UNIT  53 AT TIME STEP 68, STRESS PERIOD   2
 UBDSV1 SAVING "FLOW FRONT FACE " ON UNIT  53 AT TIME STEP 68, STRESS PERIOD   2
1
              HEAD IN LAYER   1 AT END OF TIME STEP  68 IN STRESS PERIOD    2
  ---------------------------------------------------------------------------

            1           2           3           4           5           6           7           8           9          10
           11          12          13          14          15          16          17          18          19          20
           21          22          23          24          25          26          27          28          29          30
           31          32          33          34          35          36          37          38          39          40
           41          42          43          44          45          46          47          48          49          50
 ........................................................................................................................
   1    10.00       9.951       9.902       9.845       9.800       9.761       9.711       9.640       9.563       9.492    
        9.336       9.141       8.997       8.836       8.665       8.492       8.332       8.147       7.901       7.656    
        7.488       7.297       7.045       6.790       6.562       6.364       6.081       5.824       5.642       5.452    
        5.290       5.185       5.073       4.946       4.824       4.674       4.511       4.292       4.040       3.764    
        3.408       3.044       2.566       2.042       1.648       1.363       1.151      0.9076      0.5329       0.000    
   2    10.00       9.946       9.894       9.845       9.807       9.770       9.713       9.641       9.571       9.475    
        9.322       9.148       8.985       8.839       8.681       8.502       8.311       8.121       7.892       7.645    
        7.462       7.305       7.036       6.760       6.557       6.333       6.060       5.815       5.605       5.426    
        5.289       5.193       5.099       4.963       4.821       4.671       4.484       4.280       4.036       3.721    
        3.387       3.078       2.576       2.057       1.707       1.454       1.209      0.9374      0.5661       0.000    
   3    10.00       9.937       9.893       9.860       9.823       9.785       9.724       9.638       9.552       9.448    
        9.310       9.155       8.998       8.850       8.662       8.438       8.251       8.087       7.876       7.659    
        7.472       7.247       6.981       6.737       6.517       6.265       6.003       5.760       5.545       5.413    
        5.302       5.210       5.116       4.967       4.816       4.657       4.472       4.243       3.970       3.729    
        3.435       3.013       2.524       2.151       1.854       1.560       1.259      0.9501      0.5366       0.000    
   4    10.00       9.937       9.899       9.868       9.843       9.802       9.732       9.633       9.531       9.428    
        9.295       9.156       8.999       8.813       8.581       8.373       8.239       8.054       7.850       7.680    
        7.423       7.138       6.904       6.687       6.473       6.171       5.880       5.686       5.541       5.429    
        5.329       5.233       5.130       4.957       4.772       4.627       4.431       4.194       3.962       3.751    
        3.417       2.952       2.583       2.270       1.951       1.618       1.255      0.8943      0.4584       0.000    
   5    10.00       9.942       9.907       9.877       9.854       9.812       9.737       9.624       9.511       9.407    
        9.294       9.151       8.949       8.731       8.534       8.370       8.203       8.030       7.838       7.598    
        7.299       7.063       6.869       6.649       6.374       6.060       5.822       5.685       5.566       5.451    
        5.337       5.220       5.101       4.933       4.745       4.569       4.394       4.208       3.998       3.721    
        3.342       2.988       2.673       2.358       2.010       1.622       1.167      0.7527      0.3899       0.000    
   6    10.00       9.952       9.917       9.888       9.856       9.810       9.730       9.608       9.509       9.398    
        9.271       9.093       8.871       8.690       8.508       8.320       8.149       7.995       7.780       7.506    
        7.240       7.015       6.816       6.544       6.245       6.008       5.816       5.688       5.555       5.436    
        5.335       5.207       5.059       4.886       4.702       4.552       4.401       4.233       4.011       3.713    
        3.382       3.042       2.720       2.402       2.025       1.556       1.066      0.7074      0.3643       0.000    
   7    10.00       9.958       9.928       9.897       9.863       9.807       9.700       9.583       9.480       9.341    
        9.211       9.021       8.819       8.632       8.445       8.253       8.087       7.944       7.696       7.405    
        7.164       6.934       6.712       6.447       6.194       5.979       5.811       5.656       5.513       5.422    
        5.319       5.176       5.019       4.847       4.689       4.556       4.415       4.244       4.018       3.748    
        3.420       3.070       2.737       2.386       2.014       1.522       1.019      0.6735      0.3188       0.000    
   8    10.00       9.965       9.938       9.904       9.865       9.775       9.644       9.533       9.403       9.271    
        9.127       8.931       8.760       8.568       8.358       8.169       8.025       7.854       7.619       7.336    
        7.056       6.845       6.660       6.388       6.124       5.932       5.741       5.573       5.477       5.388    
        5.264       5.122       4.990       4.840       4.678       4.541       4.434       4.304       4.085       3.776    
        3.417       3.107       2.796       2.388       1.974       1.424      0.9438      0.6595      0.3053       0.000    
   9    10.00       9.973       9.942       9.903       9.837       9.718       9.579       9.448       9.334       9.198    
        9.027       8.853       8.681       8.497       8.280       8.103       7.967       7.764       7.532       7.241    
        6.999       6.789       6.525       6.245       6.022       5.851       5.660       5.521       5.428       5.325    
        5.212       5.086       4.961       4.830       4.692       4.564       4.458       4.343       4.117       3.782    
        3.453       3.178       2.852       2.459       1.847       1.226      0.8990      0.5575      0.2127       0.000    
  10    10.00       9.973       9.940       9.886       9.784       9.642       9.487       9.385       9.277       9.116    
        8.966       8.794       8.623       8.422       8.220       8.062       7.877       7.668       7.421       7.186    
        6.947       6.623       6.351       6.131       5.942       5.787       5.611       5.470       5.377       5.294    
        5.176       5.039       4.929       4.808       4.687       4.600       4.496       4.362       4.104       3.772    
        3.517       3.275       2.902       2.309       1.600       1.150      0.8155      0.4981      0.2485       0.000    
  11    10.00       9.973       9.930       9.846       9.730       9.571       9.434       9.348       9.219       9.081    
        8.938       8.756       8.550       8.335       8.166       7.993       7.821       7.594       7.354       7.122    
        6.779       6.467       6.251       6.054       5.871       5.699       5.531       5.422       5.346       5.263    
        5.128       5.001       4.911       4.804       4.706       4.611       4.492       4.348       4.105       3.841    
        3.572       3.258       2.851       2.198       1.534       1.081      0.7640      0.5797      0.3203       0.000    
  12    10.00       9.970       9.910       9.802       9.650       9.492       9.383       9.297       9.184       9.060    
        8.902       8.708       8.501       8.311       8.138       7.947       7.748       7.515       7.271       6.954    
        6.615       6.378       6.165       5.964       5.762       5.591       5.475       5.394       5.296       5.187    
        5.066       4.975       4.895       4.812       4.728       4.631       4.505       4.331       4.107       3.870    
        3.582       3.241       2.683       1.948       1.383       1.064      0.8479      0.6151      0.3507       0.000    
  13    10.00       9.960       9.867       9.718       9.560       9.423       9.335       9.260       9.163       9.043    
        8.876       8.674       8.484       8.331       8.130       7.896       7.662       7.410       7.137       6.827    
        6.530       6.274       6.042       5.833       5.638       5.515       5.443       5.327       5.200       5.102    
        5.027       4.956       4.885       4.817       4.736       4.652       4.539       4.340       4.113       3.832    
        3.501       3.069       2.421       1.826       1.415       1.144      0.8912      0.6166      0.3047       0.000    
  14    10.00       9.927       9.793       9.629       9.482       9.374       9.315       9.246       9.153       9.020    
        8.836       8.663       8.507       8.347       8.119       7.842       7.591       7.305       7.001       6.678    
        6.390       6.134       5.905       5.699       5.549       5.464       5.374       5.233       5.126       5.054    
        5.000       4.933       4.875       4.811       4.738       4.672       4.539       4.335       4.095       3.745    
        3.356       2.846       2.348       1.914       1.506       1.188      0.9069      0.6171      0.2750       0.000    
  15    10.00       9.864       9.715       9.568       9.450       9.367       9.301       9.236       9.143       9.020    
        8.856       8.688       8.533       8.307       8.039       7.772       7.493       7.197       6.835       6.491    
        6.224       5.976       5.762       5.606       5.493       5.404       5.293       5.162       5.074       5.024    
        4.962       4.908       4.864       4.803       4.736       4.664       4.522       4.330       4.027       3.650    
        3.247       2.790       2.387       1.940       1.597       1.258      0.9183      0.6114      0.2509       0.000    
  16    10.00       9.842       9.679       9.544       9.443       9.367       9.300       9.239       9.149       9.021    
        8.867       8.705       8.514       8.225       7.931       7.709       7.434       7.038       6.625       6.306    
        6.032       5.826       5.651       5.519       5.394       5.314       5.192       5.086       5.020       4.962    
        4.918       4.886       4.839       4.784       4.723       4.640       4.510       4.277       3.947       3.606    
        3.263       2.824       2.372       1.979       1.656       1.299      0.9160      0.5482      0.2064       0.000    
  17    10.00       9.820       9.657       9.548       9.458       9.381       9.315       9.247       9.149       9.029    
        8.885       8.680       8.418       8.106       7.859       7.649       7.311       6.864       6.446       6.139    
        5.920       5.690       5.496       5.355       5.253       5.151       5.045       4.980       4.927       4.898    
        4.884       4.853       4.805       4.751       4.688       4.598       4.445       4.242       3.978       3.622    
        3.231       2.770       2.353       2.005       1.675       1.309      0.9356      0.5713      0.2416       0.000    
  18    10.00       9.810       9.656       9.563       9.481       9.407       9.341       9.258       9.162       9.033    
        8.859       8.617       8.325       8.061       7.818       7.509       7.117       6.708       6.340       6.039    
        5.769       5.474       5.307       5.189       5.100       4.984       4.917       4.861       4.828       4.836    
        4.832       4.806       4.759       4.698       4.633       4.538       4.393       4.230       4.002       3.675    
        3.169       2.678       2.338       2.008       1.727       1.343      0.9310      0.5607      0.2416       0.000    
  19    10.00       9.818       9.690       9.593       9.506       9.432       9.354       9.277       9.188       9.039    
        8.834       8.575       8.286       7.992       7.670       7.335       6.972       6.579       6.208       5.888    
        5.575       5.318       5.185       5.095       4.968       4.866       4.809       4.758       4.750       4.754    
        4.762       4.748       4.692       4.638       4.586       4.514       4.378       4.201       3.971       3.589    
        3.080       2.664       2.325       2.001       1.685       1.289      0.8950      0.5576      0.2629       0.000    
  20    10.00       9.828       9.719       9.634       9.550       9.462       9.370       9.287       9.197       9.045    
        8.822       8.553       8.216       7.834       7.464       7.191       6.826       6.404       6.079       5.762    
        5.483       5.271       5.110       4.971       4.810       4.738       4.701       4.676       4.681       4.683    
        4.689       4.666       4.623       4.593       4.552       4.480       4.325       4.146       3.885       3.456    
        3.018       2.687       2.296       1.925       1.581       1.191      0.8979      0.5540      0.2458       0.000    
  21    10.00       9.853       9.755       9.669       9.577       9.493       9.392       9.301       9.204       9.032    
        8.791       8.461       8.040       7.593       7.251       7.002       6.659       6.352       6.047       5.704    
        5.439       5.204       5.002       4.740       4.606       4.569       4.513       4.553       4.588       4.585    
        4.582       4.556       4.552       4.538       4.507       4.410       4.259       4.105       3.725       3.279    
        2.953       2.595       2.195       1.850       1.485       1.143      0.8131      0.4881      0.2453       0.000    
  22    10.00       9.885       9.781       9.688       9.599       9.520       9.404       9.287       9.173       8.995    
        8.701       8.285       7.810       7.392       7.098       6.839       6.578       6.356       6.021       5.684    
        5.405       5.070       4.706       4.433       4.332       4.233       4.247       4.353       4.393       4.414    
        4.432       4.432       4.458       4.477       4.448       4.350       4.201       3.916       3.484       3.199    
        2.848       2.461       2.102       1.769       1.458       1.052      0.7057      0.4679      0.2631       0.000    
  23    10.00       9.886       9.787       9.702       9.609       9.503       9.372       9.266       9.166       8.941    
        8.580       8.134       7.700       7.336       7.035       6.816       6.570       6.278       5.958       5.689    
        5.301       4.809       4.420       4.141       3.733       3.732       3.952       4.073       4.162       4.248    
        4.288       4.321       4.361       4.394       4.369       4.272       4.055       3.728       3.377       3.027    
        2.691       2.371       2.025       1.763       1.369      0.9565      0.6863      0.4498      0.2337       0.000    
  24    10.00       9.911       9.798       9.688       9.579       9.458       9.340       9.249       9.137       8.872    
        8.461       8.039       7.680       7.362       7.074       6.787       6.487       6.222       5.967       5.653    
        5.188       4.700       4.238       3.396       2.499       3.021       3.523       3.816       3.980       4.116    
        4.190       4.238       4.286       4.300       4.273       4.146       3.905       3.638       3.253       2.881    
        2.619       2.311       1.984       1.648       1.226      0.8873      0.6599      0.4212      0.1859       0.000    
  25    10.00       9.903       9.772       9.638       9.510       9.400       9.310       9.218       9.080       8.805    
        8.374       7.981       7.706       7.408       7.075       6.777       6.496       6.264       6.027       5.622    
        5.090       4.610       3.872       2.505     -0.3481       2.403       3.195       3.659       3.903       4.045    
        4.131       4.188       4.228       4.230       4.188       4.046       3.789       3.476       3.163       2.850    
        2.552       2.219       1.846       1.491       1.090      0.8143      0.6567      0.4091      0.1517       0.000    
  26    10.00       9.878       9.711       9.559       9.456       9.367       9.278       9.165       9.003       8.663    
        8.262       7.987       7.722       7.426       7.114       6.827       6.563       6.332       6.034       5.603    
        5.135       4.605       3.958       3.219       2.539       2.897       3.368       3.695       3.894       4.025    
        4.105       4.164       4.188       4.177       4.113       3.940       3.651       3.399       3.148       2.812    
        2.503       2.126       1.699       1.318      0.9904      0.7962      0.6205      0.3641      0.1550       0.000    
  27    10.00       9.852       9.673       9.531       9.445       9.328       9.211       9.068       8.850       8.529    
        8.244       8.001       7.732       7.443       7.137       6.910       6.726       6.414       6.039       5.599    
        5.202       4.817       4.296       3.808       3.422       3.480       3.660       3.820       3.946       4.039    
        4.123       4.171       4.176       4.143       4.053       3.853       3.622       3.401       3.110       2.794    
        2.474       2.020       1.530       1.173      0.9446      0.7825      0.5896      0.3846      0.1855       0.000    
  28    10.00       9.832       9.701       9.543       9.395       9.253       9.123       8.954       8.736       8.487    
        8.252       8.035       7.768       7.446       7.174       6.990       6.785       6.443       6.007       5.619    
        5.337       5.049       4.638       4.257       4.011       3.929       3.922       3.970       4.051       4.127    
        4.180       4.191       4.179       4.124       4.003       3.821       3.636       3.375       3.071       2.753    
        2.362       1.933       1.448       1.093      0.9339      0.7790      0.6074      0.4015      0.1862       0.000    
  29    10.00       9.838       9.675       9.507       9.330       9.193       9.046       8.858       8.674       8.476    
        8.267       8.051       7.792       7.520       7.286       7.068       6.796       6.416       6.018       5.716    
        5.475       5.222       4.884       4.544       4.343       4.233       4.163       4.161       4.200       4.224    
        4.226       4.219       4.187       4.109       3.970       3.812       3.639       3.394       3.058       2.654    
        2.297       1.841       1.356       1.077      0.9366      0.7842      0.6026      0.3920      0.1950       0.000    
  30    10.00       9.814       9.650       9.448       9.269       9.143       8.985       8.821       8.678       8.500    
        8.286       8.053       7.817       7.600       7.392       7.146       6.800       6.446       6.127       5.839    
        5.631       5.380       5.072       4.776       4.534       4.437       4.372       4.347       4.323       4.300    
        4.274       4.247       4.195       4.092       3.963       3.837       3.663       3.348       2.932       2.517    
        2.153       1.733       1.364       1.106      0.9577      0.7858      0.5918      0.4108      0.2016       0.000    
  31    10.00       9.790       9.600       9.407       9.245       9.114       8.965       8.819       8.678       8.505    
        8.294       8.059       7.856       7.676       7.480       7.205       6.862       6.554       6.302       6.045    
        5.823       5.539       5.236       4.987       4.740       4.582       4.517       4.455       4.408       4.360    
        4.324       4.273       4.199       4.096       3.970       3.827       3.552       3.199       2.851       2.445    
        2.100       1.682       1.321       1.134      0.9752      0.8133      0.6115      0.4111      0.1949       0.000    
  32    10.00       9.774       9.570       9.405       9.268       9.137       8.981       8.816       8.645       8.482    
        8.274       8.071       7.890       7.692       7.511       7.277       7.011       6.779       6.519       6.253    
        6.029       5.764       5.457       5.189       4.933       4.708       4.622       4.541       4.475       4.407    
        4.355       4.304       4.204       4.075       3.955       3.756       3.414       3.079       2.772       2.402    
        1.999       1.608       1.342       1.198       1.024      0.8200      0.6066      0.3904      0.1948       0.000    
  33    10.00       9.767       9.592       9.460       9.324       9.172       8.985       8.801       8.618       8.432    
        8.259       8.089       7.910       7.722       7.520       7.339       7.144       6.946       6.733       6.474    
        6.213       5.965       5.706       5.393       5.078       4.822       4.694       4.613       4.531       4.445    
        4.382       4.309       4.200       4.074       3.899       3.623       3.270       2.986       2.689       2.256    
        1.889       1.632       1.421       1.249       1.051      0.8358      0.5745      0.3434      0.1548       0.000    
  34    10.00       9.788       9.645       9.521       9.370       9.184       8.987       8.773       8.571       8.416    
        8.261       8.106       7.944       7.750       7.573       7.398       7.229       7.071       6.868       6.604    
        6.358       6.132       5.876       5.551       5.205       4.920       4.754       4.658       4.565       4.469    
        4.385       4.306       4.197       4.039       3.824       3.483       3.139       2.881       2.526       2.143    
        1.916       1.746       1.543       1.322       1.061      0.7581      0.4642      0.2750      0.1140       0.000    
  35    10.00       9.823       9.695       9.568       9.407       9.198       8.974       8.736       8.545       8.411    
        8.307       8.152       7.973       7.767       7.578       7.454       7.330       7.169       6.959       6.707    
        6.472       6.249       6.013       5.649       5.258       4.986       4.804       4.693       4.586       4.476    
        4.391       4.296       4.167       3.962       3.628       3.272       3.041       2.771       2.407       2.176    
        2.017       1.824       1.619       1.404       1.074      0.6448      0.3566      0.2345      0.1190       0.000    
  36    10.00       9.844       9.733       9.612       9.441       9.193       8.920       8.696       8.559       8.455    
        8.315       8.139       7.975       7.793       7.627       7.504       7.386       7.244       7.078       6.846    
        6.602       6.366       6.076       5.686       5.300       5.024       4.851       4.720       4.588       4.476    
        4.380       4.260       4.055       3.748       3.443       3.196       2.978       2.695       2.403       2.249    
        2.087       1.914       1.707       1.429      0.9798      0.5433      0.3351      0.2145      0.1102       0.000    
  37    10.00       9.861       9.775       9.645       9.418       9.147       8.906       8.731       8.618       8.494    
        8.313       8.125       7.984       7.826       7.673       7.555       7.447       7.315       7.140       6.940    
        6.740       6.483       6.122       5.754       5.388       5.076       4.868       4.705       4.585       4.464    
        4.342       4.166       3.861       3.581       3.364       3.151       2.924       2.701       2.491       2.319    
        2.163       1.968       1.733       1.368      0.8988      0.5243      0.3142      0.1997      0.1002       0.000    
  38    10.00       9.882       9.778       9.636       9.401       9.122       8.919       8.789       8.672       8.527    
        8.335       8.137       7.999       7.855       7.702       7.584       7.492       7.377       7.206       7.032    
        6.849       6.556       6.148       5.750       5.392       5.088       4.861       4.681       4.562       4.449    
        4.281       3.991       3.720       3.541       3.325       3.113       2.949       2.759       2.567       2.401    
        2.217       1.952       1.654       1.257      0.7907      0.5031      0.3540      0.2205      9.8980E-02   0.000    
  39    10.00       9.881       9.763       9.615       9.388       9.136       8.952       8.838       8.694       8.535    
        8.380       8.180       8.022       7.886       7.739       7.614       7.509       7.398       7.261       7.104    
        6.894       6.583       6.164       5.719       5.350       5.068       4.812       4.628       4.532       4.425    
        4.172       3.867       3.694       3.490       3.288       3.136       2.999       2.825       2.639       2.483    
        2.216       1.841       1.489       1.059      0.7062      0.5453      0.4060      0.2644      0.1360       0.000    
  40    10.00       9.872       9.769       9.618       9.409       9.198       9.020       8.868       8.699       8.553    
        8.436       8.244       8.045       7.906       7.770       7.630       7.516       7.427       7.308       7.124    
        6.884       6.529       6.103       5.686       5.308       5.015       4.729       4.583       4.498       4.355    
        4.126       3.894       3.659       3.446       3.303       3.171       3.040       2.878       2.705       2.501    
        2.140       1.729       1.348       1.000      0.7581      0.5922      0.4534      0.3201      0.1572       0.000    
  41    10.00       9.889       9.807       9.661       9.447       9.227       9.058       8.923       8.757       8.582    
        8.445       8.270       8.087       7.957       7.799       7.632       7.532       7.438       7.286       7.087    
        6.841       6.496       6.070       5.663       5.286       4.896       4.630       4.550       4.458       4.351    
        4.167       3.888       3.651       3.482       3.338       3.219       3.075       2.920       2.741       2.423    
        2.000       1.599       1.267       1.011      0.8010      0.6471      0.4987      0.3523      0.1856       0.000    
  42    10.00       9.917       9.827       9.687       9.503       9.295       9.103       8.964       8.816       8.625    
        8.449       8.282       8.128       8.003       7.838       7.660       7.541       7.414       7.249       7.024    
        6.743       6.367       5.996       5.593       5.103       4.755       4.613       4.549       4.471       4.354    
        4.139       3.895       3.673       3.501       3.385       3.258       3.130       2.962       2.678       2.256    
        1.885       1.586       1.297       1.007      0.8119      0.6810      0.5386      0.3671      0.2037       0.000    
  43    10.00       9.935       9.838       9.695       9.514       9.342       9.172       9.017       8.835       8.639    
        8.478       8.310       8.158       8.042       7.889       7.690       7.533       7.388       7.163       6.876    
        6.601       6.239       5.895       5.436       4.974       4.743       4.630       4.557       4.481       4.359    
        4.155       3.931       3.717       3.548       3.436       3.311       3.143       2.904       2.489       2.114    
        1.882       1.617       1.313       1.011      0.8045      0.6833      0.5735      0.3973      0.1862       0.000    
  44    10.00       9.928       9.846       9.697       9.534       9.410       9.240       9.031       8.825       8.662    
        8.502       8.336       8.201       8.081       7.904       7.693       7.513       7.340       7.075       6.785    
        6.456       6.093       5.729       5.269       4.921       4.750       4.654       4.589       4.506       4.353    
        4.144       3.964       3.776       3.618       3.504       3.333       3.111       2.767       2.344       2.095    
        1.883       1.605       1.302       1.026      0.8153      0.6859      0.5742      0.3894      0.1716       0.000    
  45    10.00       9.913       9.815       9.696       9.577       9.420       9.243       9.044       8.840       8.677    
        8.512       8.362       8.244       8.108       7.915       7.691       7.489       7.292       7.005       6.663    
        6.283       5.899       5.506       5.166       4.925       4.780       4.686       4.618       4.515       4.389    
        4.208       4.004       3.835       3.674       3.512       3.332       3.087       2.720       2.352       2.061    
        1.819       1.557       1.273       1.026      0.8417      0.7340      0.5671      0.3376      0.1539       0.000    
  46    10.00       9.896       9.794       9.699       9.566       9.386       9.215       9.054       8.853       8.680    
        8.534       8.394       8.276       8.115       7.910       7.710       7.495       7.238       6.927       6.555    
        6.108       5.724       5.410       5.152       4.968       4.840       4.726       4.634       4.553       4.412    
        4.220       4.044       3.878       3.695       3.534       3.360       3.085       2.661       2.274       2.015    
        1.786       1.535       1.267       1.050      0.9067      0.7682      0.5148      0.2531      0.1100       0.000    
  47    10.00       9.889       9.786       9.656       9.501       9.354       9.207       9.033       8.851       8.696    
        8.563       8.438       8.273       8.098       7.914       7.721       7.486       7.187       6.894       6.443    
        5.956       5.656       5.385       5.182       5.012       4.887       4.773       4.662       4.566       4.422    
        4.221       4.047       3.881       3.707       3.567       3.358       2.975       2.595       2.271       1.993    
        1.793       1.555       1.316       1.107      0.9293      0.7055      0.4241      0.2217      9.2310E-02   0.000    
  48    10.00       9.877       9.754       9.615       9.475       9.344       9.196       9.036       8.868       8.716    
        8.580       8.435       8.255       8.075       7.896       7.704       7.480       7.198       6.834       6.385    
        5.964       5.656       5.391       5.205       5.067       4.914       4.799       4.706       4.588       4.392    
        4.196       4.026       3.873       3.744       3.560       3.284       2.919       2.576       2.268       2.024    
        1.808       1.581       1.366       1.128      0.8627      0.5738      0.3628      0.2152      9.7217E-02   0.000    
  49    10.00       9.866       9.732       9.596       9.481       9.346       9.189       9.032       8.896       8.739    
        8.577       8.394       8.218       8.067       7.862       7.676       7.490       7.174       6.814       6.457    
        6.012       5.669       5.406       5.243       5.082       4.917       4.827       4.739       4.552       4.316    
        4.147       4.011       3.900       3.733       3.519       3.272       2.907       2.564       2.322       2.062    
        1.808       1.599       1.370       1.090      0.7644      0.5119      0.3630      0.2343      0.1202       0.000    
  50    10.00       9.871       9.737       9.599       9.474       9.341       9.201       9.047       8.903       8.763    
        8.565       8.374       8.212       8.010       7.802       7.660       7.483       7.238       6.882       6.528    
        6.075       5.643       5.415       5.249       5.081       4.947       4.840       4.722       4.501       4.276    
        4.136       4.024       3.894       3.721       3.523       3.287       2.917       2.565       2.331       2.097    
        1.854       1.592       1.333       1.034      0.7128      0.5239      0.3907      0.2648      0.1597       0.000    

 HEAD WILL BE SAVED ON UNIT   51 AT END OF TIME STEP  68, STRESS PERIOD    2

 DRAWDOWN WILL BE SAVED ON UNIT   52 AT END OF TIME STEP  68, STRESS PERIOD    2
1
  VOLUMETRIC BUDGET FOR ENTIRE MODEL AT END OF TIME STEP 68 IN STRESS PERIOD   2
  ------------------------------------------------------------------------------

     CUMULATIVE VOLUMES      L**3       RATES FOR THIS TIME STEP      L**3/T
     ------------------                 ------------------------

           IN:                                      IN:
           ---                                      ---
             STORAGE =       33256.9570               STORAGE =         460.9474
       CONSTANT HEAD =       26365.0996         CONSTANT HEAD =         406.0558
               WELLS =           0.0000                 WELLS =           0.0000

            TOTAL IN =       59622.0547              TOTAL IN =         867.0032

          OUT:                                     OUT:
          ----                                     ----
             STORAGE =       1.1143E-02               STORAGE =           0.0000
       CONSTANT HEAD =       25622.0430         CONSTANT HEAD =         367.0031
               WELLS =       34000.0000                 WELLS =         500.0000

           TOTAL OUT =       59622.0547             TOTAL OUT =         867.0032

            IN - OUT =           0.0000              IN - OUT =           0.0000

 PERCENT DISCREPANCY =           0.00     PERCENT DISCREPANCY =           0.00






          TIME SUMMARY AT END OF TIME STEP  68 IN STRESS PERIOD    2
                    SECONDS     MINUTES      HOURS       DAYS        YEARS
                    -----------------------------------------------------------
   TIME STEP LENGTH  86400.      1440.0      24.000      1.0000     2.73785E-03
 STRESS PERIOD TIME 5.87520E+06  97920.      1632.0      68.000     0.18617    
         TOTAL TIME 5.96160E+06  99360.      1656.0      69.000     0.18891    
1
 
 SOLVING FOR HEAD 

 OUTPUT CONTROL FOR STRESS PERIOD    2   TIME STEP  69
    SAVE HEAD FOR ALL LAYERS
    SAVE DRAWDOWN FOR ALL LAYERS
    SAVE BUDGET
    PRINT HEAD FOR ALL LAYERS
    PRINT BUDGET
 UBDSV1 SAVING "         STORAGE" ON UNIT  53 AT TIME STEP 69, STRESS PERIOD   2
 UBDSV2 SAVING "   CONSTANT HEAD" ON UNIT  53 AT TIME STEP 69, STRESS PERIOD   2
 UBDSV1 SAVING "FLOW RIGHT FACE " ON UNIT  53 AT TIME STEP 69, STRESS PERIOD   2
 UBDSV1 SAVING "FLOW FRONT FACE " ON UNIT  53 AT TIME STEP 69, STRESS PERIOD   2
1
              HEAD IN LAYER   1 AT END OF TIME STEP  69 IN STRESS PERIOD    2
  ---------------------------------------------------------------------------

            1           2           3           4           5           6           7           8           9          10
           11          12          13          14          15          16          17          18          19          20
           21          22          23          24          25          26          27          28          29          30
           31          32          33          34          35          36          37          38          39          40
           41          42          43          44          45          46          47          48          49          50
 ........................................................................................................................
   1    10.00       9.951       9.902       9.845       9.799       9.761       9.710       9.639       9.562       9.491    
        9.335       9.140       8.995       8.834       8.663       8.490       8.329       8.145       7.898       7.652    
        7.485       7.293       7.042       6.786       6.558       6.359       6.077       5.819       5.637       5.447    
        5.285       5.180       5.068       4.941       4.820       4.669       4.507       4.288       4.036       3.761    
        3.405       3.042       2.564       2.041       1.646       1.362       1.150      0.9070      0.5325       0.000    
   2    10.00       9.946       9.894       9.845       9.807       9.769       9.713       9.641       9.570       9.474    
        9.321       9.146       8.984       8.837       8.679       8.500       8.309       8.119       7.889       7.641    
        7.459       7.301       7.032       6.756       6.553       6.328       6.055       5.810       5.600       5.421    
        5.284       5.188       5.093       4.958       4.816       4.666       4.480       4.275       4.032       3.717    
        3.384       3.076       2.574       2.055       1.706       1.453       1.208      0.9368      0.5657       0.000    
   3    10.00       9.937       9.893       9.859       9.823       9.784       9.723       9.638       9.551       9.447    
        9.308       9.153       8.997       8.848       8.660       8.435       8.248       8.084       7.872       7.655    
        7.468       7.243       6.977       6.733       6.512       6.261       5.998       5.755       5.540       5.407    
        5.296       5.205       5.110       4.962       4.812       4.652       4.468       4.239       3.966       3.726    
        3.432       3.011       2.522       2.149       1.853       1.559       1.258      0.9495      0.5362       0.000    
   4    10.00       9.937       9.898       9.868       9.843       9.802       9.731       9.632       9.530       9.427    
        9.294       9.155       8.998       8.811       8.578       8.370       8.236       8.051       7.846       7.677    
        7.419       7.133       6.899       6.682       6.468       6.166       5.875       5.680       5.536       5.423    
        5.324       5.228       5.125       4.952       4.767       4.622       4.427       4.190       3.958       3.748    
        3.414       2.950       2.581       2.268       1.950       1.617       1.255      0.8937      0.4582       0.000    
   5    10.00       9.942       9.906       9.876       9.853       9.811       9.737       9.624       9.510       9.406    
        9.293       9.149       8.947       8.729       8.532       8.367       8.200       8.027       7.835       7.594    
        7.295       7.058       6.864       6.644       6.368       6.055       5.816       5.679       5.560       5.446    
        5.331       5.214       5.096       4.928       4.739       4.564       4.389       4.204       3.994       3.717    
        3.338       2.986       2.671       2.356       2.009       1.621       1.166      0.7522      0.3896       0.000    
   6    10.00       9.952       9.917       9.887       9.856       9.809       9.730       9.608       9.508       9.397    
        9.270       9.091       8.869       8.687       8.505       8.317       8.146       7.991       7.776       7.502    
        7.236       7.011       6.811       6.538       6.239       6.003       5.810       5.682       5.549       5.430    
        5.329       5.201       5.053       4.880       4.696       4.547       4.396       4.228       4.007       3.709    
        3.379       3.039       2.718       2.399       2.023       1.554       1.065      0.7069      0.3641       0.000    
   7    10.00       9.958       9.928       9.897       9.862       9.807       9.700       9.582       9.479       9.340    
        9.210       9.019       8.817       8.630       8.442       8.250       8.083       7.940       7.692       7.400    
        7.159       6.928       6.706       6.442       6.188       5.973       5.805       5.650       5.507       5.415    
        5.312       5.170       5.013       4.841       4.683       4.550       4.410       4.239       4.014       3.744    
        3.417       3.067       2.734       2.383       2.012       1.520       1.018      0.6730      0.3186       0.000    
   8    10.00       9.965       9.938       9.904       9.864       9.774       9.644       9.532       9.402       9.270    
        9.125       8.929       8.757       8.565       8.355       8.166       8.021       7.850       7.614       7.331    
        7.050       6.839       6.654       6.382       6.117       5.925       5.734       5.566       5.470       5.381    
        5.257       5.115       4.983       4.833       4.671       4.535       4.428       4.299       4.080       3.771    
        3.413       3.103       2.793       2.385       1.972       1.422      0.9430      0.6589      0.3050       0.000    
   9    10.00       9.972       9.942       9.903       9.836       9.717       9.578       9.446       9.332       9.196    
        9.025       8.850       8.679       8.494       8.276       8.099       7.963       7.759       7.526       7.236    
        6.993       6.782       6.518       6.238       6.014       5.843       5.653       5.514       5.420       5.317    
        5.205       5.078       4.954       4.823       4.685       4.557       4.452       4.337       4.112       3.777    
        3.449       3.175       2.849       2.456       1.845       1.225      0.8983      0.5571      0.2125       0.000    
  10    10.00       9.972       9.940       9.886       9.783       9.641       9.486       9.384       9.275       9.114    
        8.964       8.791       8.620       8.419       8.216       8.057       7.873       7.662       7.415       7.180    
        6.941       6.616       6.343       6.123       5.934       5.779       5.603       5.462       5.369       5.286    
        5.168       5.031       4.921       4.801       4.679       4.593       4.489       4.356       4.098       3.767    
        3.512       3.272       2.898       2.307       1.599       1.149      0.8148      0.4977      0.2483       0.000    
  11    10.00       9.972       9.930       9.845       9.729       9.570       9.432       9.347       9.217       9.079    
        8.935       8.753       8.547       8.331       8.161       7.989       7.815       7.589       7.348       7.116    
        6.772       6.459       6.243       6.045       5.862       5.690       5.522       5.414       5.338       5.255    
        5.119       4.992       4.903       4.796       4.699       4.603       4.485       4.341       4.099       3.835    
        3.568       3.254       2.848       2.195       1.533       1.080      0.7633      0.5792      0.3201       0.000    
  12    10.00       9.970       9.910       9.801       9.649       9.491       9.381       9.295       9.182       9.057    
        8.899       8.705       8.497       8.307       8.133       7.942       7.742       7.509       7.264       6.946    
        6.607       6.370       6.157       5.955       5.753       5.582       5.466       5.385       5.287       5.178    
        5.057       4.966       4.887       4.804       4.720       4.624       4.498       4.325       4.101       3.865    
        3.577       3.237       2.680       1.946       1.382       1.063      0.8471      0.6145      0.3504       0.000    
  13    10.00       9.960       9.866       9.717       9.558       9.422       9.333       9.258       9.161       9.040    
        8.873       8.670       8.480       8.327       8.125       7.891       7.657       7.404       7.130       6.819    
        6.522       6.265       6.033       5.823       5.629       5.505       5.434       5.318       5.190       5.093    
        5.017       4.947       4.876       4.808       4.728       4.644       4.531       4.333       4.106       3.827    
        3.496       3.065       2.418       1.824       1.414       1.143      0.8904      0.6160      0.3045       0.000    
  14    10.00       9.927       9.792       9.628       9.480       9.373       9.313       9.243       9.150       9.017    
        8.832       8.659       8.503       8.343       8.114       7.837       7.585       7.298       6.994       6.670    
        6.382       6.124       5.896       5.689       5.539       5.454       5.365       5.223       5.116       5.044    
        4.991       4.924       4.866       4.802       4.730       4.663       4.531       4.328       4.089       3.740    
        3.351       2.842       2.345       1.912       1.504       1.186      0.9061      0.6165      0.2747       0.000    
  15    10.00       9.864       9.714       9.566       9.448       9.365       9.299       9.233       9.141       9.017    
        8.853       8.684       8.529       8.303       8.033       7.766       7.486       7.190       6.827       6.482    
        6.215       5.966       5.752       5.595       5.483       5.394       5.283       5.152       5.064       5.014    
        4.952       4.899       4.854       4.794       4.727       4.655       4.514       4.323       4.020       3.644    
        3.242       2.786       2.384       1.938       1.595       1.257      0.9175      0.6108      0.2507       0.000    
  16    10.00       9.841       9.678       9.543       9.441       9.365       9.297       9.237       9.147       9.018    
        8.863       8.701       8.509       8.220       7.925       7.703       7.427       7.029       6.616       6.297    
        6.022       5.815       5.641       5.508       5.384       5.303       5.182       5.075       5.010       4.952    
        4.908       4.876       4.830       4.774       4.714       4.631       4.501       4.269       3.941       3.600    
        3.258       2.820       2.369       1.977       1.654       1.298      0.9152      0.5477      0.2063       0.000    
  17    10.00       9.820       9.656       9.547       9.456       9.379       9.313       9.244       9.146       9.026    
        8.881       8.676       8.413       8.101       7.852       7.642       7.303       6.855       6.436       6.129    
        5.910       5.679       5.485       5.344       5.242       5.140       5.034       4.969       4.916       4.887    
        4.873       4.843       4.795       4.741       4.678       4.589       4.436       4.234       3.970       3.616    
        3.226       2.766       2.350       2.003       1.673       1.308      0.9347      0.5708      0.2414       0.000    
  18    10.00       9.809       9.655       9.561       9.479       9.405       9.339       9.255       9.159       9.029    
        8.856       8.613       8.319       8.055       7.811       7.502       7.108       6.699       6.330       6.028    
        5.758       5.463       5.296       5.178       5.089       4.973       4.905       4.850       4.817       4.825    
        4.821       4.795       4.748       4.688       4.623       4.529       4.384       4.222       3.994       3.669    
        3.164       2.675       2.335       2.006       1.725       1.342      0.9302      0.5602      0.2414       0.000    
  19    10.00       9.818       9.689       9.592       9.505       9.430       9.352       9.275       9.186       9.036    
        8.830       8.571       8.280       7.986       7.663       7.327       6.963       6.569       6.197       5.877    
        5.563       5.307       5.174       5.083       4.957       4.854       4.797       4.746       4.738       4.743    
        4.751       4.737       4.682       4.627       4.576       4.504       4.369       4.192       3.963       3.582    
        3.075       2.660       2.322       1.998       1.684       1.288      0.8942      0.5571      0.2627       0.000    
  20    10.00       9.827       9.718       9.633       9.548       9.460       9.368       9.284       9.195       9.042    
        8.818       8.548       8.210       7.827       7.456       7.183       6.816       6.394       6.068       5.751    
        5.471       5.259       5.098       4.959       4.798       4.726       4.689       4.665       4.669       4.671    
        4.677       4.655       4.612       4.582       4.541       4.470       4.315       4.138       3.877       3.450    
        3.013       2.683       2.293       1.923       1.580       1.190      0.8971      0.5535      0.2456       0.000    
  21    10.00       9.852       9.754       9.668       9.576       9.491       9.390       9.299       9.201       9.028    
        8.787       8.456       8.033       7.586       7.242       6.993       6.649       6.341       6.036       5.693    
        5.427       5.192       4.990       4.728       4.594       4.557       4.501       4.541       4.576       4.573    
        4.570       4.544       4.540       4.527       4.496       4.400       4.249       4.096       3.718       3.274    
        2.949       2.591       2.192       1.848       1.484       1.142      0.8124      0.4877      0.2451       0.000    
  22    10.00       9.884       9.781       9.687       9.598       9.518       9.402       9.284       9.171       8.992    
        8.696       8.280       7.803       7.383       7.089       6.830       6.568       6.346       6.009       5.673    
        5.393       5.057       4.694       4.420       4.320       4.221       4.235       4.340       4.380       4.401    
        4.420       4.419       4.446       4.465       4.437       4.339       4.191       3.908       3.477       3.193    
        2.844       2.458       2.099       1.767       1.457       1.051      0.7051      0.4675      0.2629       0.000    
  23    10.00       9.886       9.786       9.702       9.607       9.501       9.370       9.263       9.163       8.938    
        8.575       8.127       7.693       7.327       7.025       6.806       6.560       6.268       5.946       5.678    
        5.289       4.796       4.407       4.129       3.720       3.720       3.939       4.060       4.149       4.236    
        4.275       4.309       4.348       4.382       4.357       4.261       4.045       3.720       3.371       3.021    
        2.687       2.367       2.022       1.761       1.368      0.9556      0.6857      0.4495      0.2335       0.000    
  24    10.00       9.911       9.798       9.687       9.578       9.456       9.338       9.246       9.134       8.868    
        8.455       8.033       7.673       7.353       7.065       6.777       6.476       6.211       5.956       5.641    
        5.176       4.688       4.226       3.383       2.485       3.008       3.510       3.803       3.967       4.103    
        4.177       4.225       4.273       4.288       4.261       4.135       3.895       3.630       3.247       2.876    
        2.615       2.308       1.981       1.646       1.224      0.8865      0.6594      0.4209      0.1858       0.000    
  25    10.00       9.903       9.772       9.636       9.508       9.398       9.308       9.216       9.077       8.801    
        8.368       7.974       7.698       7.400       7.066       6.767       6.485       6.253       6.016       5.611    
        5.078       4.598       3.859       2.491     -0.3624       2.389       3.182       3.646       3.890       4.032    
        4.118       4.175       4.215       4.217       4.176       4.035       3.779       3.468       3.157       2.845    
        2.547       2.215       1.843       1.490       1.089      0.8135      0.6561      0.4088      0.1516       0.000    
  26    10.00       9.878       9.710       9.557       9.455       9.365       9.276       9.163       8.999       8.659    
        8.256       7.980       7.715       7.417       7.105       6.818       6.552       6.321       6.023       5.591    
        5.123       4.593       3.946       3.205       2.526       2.883       3.355       3.681       3.881       4.011    
        4.092       4.151       4.175       4.164       4.101       3.929       3.642       3.391       3.142       2.806    
        2.498       2.123       1.696       1.316      0.9893      0.7954      0.6199      0.3638      0.1549       0.000    
  27    10.00       9.851       9.672       9.530       9.443       9.326       9.209       9.065       8.846       8.524    
        8.238       7.994       7.725       7.435       7.128       6.900       6.716       6.404       6.028       5.588    
        5.190       4.805       4.283       3.795       3.409       3.467       3.647       3.807       3.933       4.026    
        4.110       4.157       4.163       4.131       4.041       3.842       3.613       3.393       3.103       2.788    
        2.470       2.017       1.528       1.171      0.9436      0.7817      0.5890      0.3843      0.1853       0.000    
  28    10.00       9.832       9.700       9.541       9.393       9.250       9.120       8.951       8.732       8.482    
        8.247       8.028       7.761       7.438       7.165       6.980       6.775       6.432       5.996       5.608    
        5.325       5.036       4.625       4.244       3.998       3.916       3.908       3.957       4.038       4.114    
        4.167       4.178       4.167       4.112       3.992       3.811       3.627       3.366       3.064       2.747    
        2.358       1.930       1.446       1.092      0.9329      0.7782      0.6068      0.4011      0.1860       0.000    
  29    10.00       9.837       9.674       9.505       9.328       9.190       9.042       8.855       8.670       8.471    
        8.261       8.045       7.785       7.512       7.277       7.059       6.786       6.406       6.008       5.705    
        5.464       5.210       4.871       4.531       4.330       4.220       4.150       4.148       4.187       4.211    
        4.214       4.206       4.175       4.097       3.958       3.801       3.629       3.386       3.051       2.649    
        2.293       1.838       1.354       1.076      0.9356      0.7834      0.6020      0.3916      0.1948       0.000    
  30    10.00       9.814       9.649       9.447       9.267       9.140       8.982       8.817       8.674       8.495    
        8.281       8.047       7.811       7.592       7.384       7.138       6.790       6.436       6.117       5.828    
        5.620       5.368       5.060       4.764       4.522       4.424       4.360       4.334       4.310       4.288    
        4.261       4.235       4.183       4.081       3.952       3.826       3.653       3.340       2.925       2.512    
        2.149       1.731       1.362       1.105      0.9567      0.7850      0.5912      0.4103      0.2014       0.000    
  31    10.00       9.789       9.599       9.405       9.243       9.111       8.962       8.815       8.674       8.500    
        8.288       8.053       7.849       7.669       7.473       7.196       6.853       6.544       6.292       6.035    
        5.812       5.528       5.224       4.975       4.727       4.570       4.505       4.442       4.396       4.348    
        4.312       4.261       4.187       4.085       3.959       3.817       3.543       3.191       2.845       2.441    
        2.097       1.679       1.320       1.133      0.9741      0.8124      0.6108      0.4107      0.1947       0.000    
  32    10.00       9.773       9.569       9.403       9.266       9.134       8.978       8.812       8.641       8.477    
        8.269       8.065       7.884       7.685       7.504       7.270       7.002       6.769       6.509       6.243    
        6.019       5.753       5.446       5.177       4.921       4.696       4.610       4.529       4.463       4.395    
        4.343       4.293       4.193       4.064       3.945       3.747       3.406       3.073       2.767       2.398    
        1.996       1.606       1.341       1.197       1.023      0.8192      0.6060      0.3900      0.1946       0.000    
  33    10.00       9.767       9.591       9.458       9.322       9.169       8.982       8.797       8.614       8.427    
        8.254       8.083       7.904       7.715       7.513       7.332       7.136       6.938       6.724       6.464    
        6.203       5.954       5.695       5.382       5.066       4.811       4.682       4.601       4.520       4.434    
        4.371       4.298       4.190       4.064       3.889       3.615       3.263       2.981       2.684       2.253    
        1.886       1.630       1.419       1.248       1.050      0.8349      0.5739      0.3431      0.1546       0.000    
  34    10.00       9.787       9.644       9.519       9.368       9.181       8.984       8.769       8.567       8.411    
        8.256       8.100       7.938       7.743       7.566       7.390       7.221       7.063       6.859       6.595    
        6.349       6.122       5.866       5.540       5.194       4.909       4.742       4.647       4.554       4.458    
        4.375       4.295       4.186       4.029       3.815       3.476       3.133       2.876       2.522       2.141    
        1.914       1.744       1.541       1.320       1.060      0.7573      0.4637      0.2747      0.1139       0.000    
  35    10.00       9.822       9.694       9.567       9.405       9.196       8.971       8.732       8.541       8.406    
        8.302       8.146       7.967       7.761       7.571       7.447       7.323       7.161       6.950       6.699    
        6.463       6.239       6.003       5.639       5.247       4.975       4.793       4.682       4.575       4.465    
        4.381       4.286       4.158       3.953       3.620       3.266       3.036       2.767       2.404       2.174    
        2.014       1.822       1.617       1.402       1.072      0.6441      0.3563      0.2343      0.1189       0.000    
  36    10.00       9.844       9.732       9.611       9.439       9.191       8.917       8.692       8.555       8.451    
        8.310       8.133       7.970       7.787       7.621       7.497       7.379       7.236       7.070       6.837    
        6.593       6.357       6.066       5.676       5.290       5.014       4.840       4.710       4.578       4.466    
        4.371       4.250       4.046       3.741       3.437       3.191       2.973       2.691       2.401       2.247    
        2.085       1.912       1.706       1.428      0.9788      0.5427      0.3348      0.2143      0.1101       0.000    
  37    10.00       9.860       9.774       9.644       9.416       9.145       8.903       8.728       8.614       8.490    
        8.308       8.119       7.978       7.821       7.666       7.548       7.441       7.308       7.133       6.932    
        6.732       6.474       6.113       5.744       5.378       5.067       4.858       4.696       4.576       4.455    
        4.333       4.158       3.854       3.575       3.359       3.146       2.920       2.697       2.488       2.316    
        2.160       1.966       1.731       1.366      0.8979      0.5239      0.3139      0.1995      0.1001       0.000    
  38    10.00       9.881       9.777       9.635       9.400       9.120       8.916       8.786       8.668       8.523    
        8.331       8.132       7.994       7.849       7.696       7.578       7.485       7.370       7.199       7.025    
        6.841       6.548       6.140       5.742       5.384       5.080       4.853       4.673       4.554       4.441    
        4.273       3.985       3.714       3.536       3.321       3.109       2.945       2.756       2.564       2.398    
        2.214       1.950       1.652       1.256      0.7900      0.5027      0.3537      0.2204      9.8902E-02   0.000    
  39    10.00       9.880       9.763       9.614       9.387       9.134       8.950       8.835       8.691       8.531    
        8.375       8.175       8.017       7.880       7.733       7.608       7.503       7.392       7.255       7.097    
        6.886       6.576       6.156       5.711       5.343       5.061       4.805       4.621       4.525       4.419    
        4.166       3.862       3.689       3.486       3.284       3.132       2.995       2.822       2.636       2.480    
        2.214       1.839       1.488       1.059      0.7057      0.5449      0.4057      0.2642      0.1359       0.000    
  40    10.00       9.871       9.768       9.617       9.408       9.196       9.017       8.866       8.696       8.549    
        8.433       8.239       8.040       7.901       7.765       7.625       7.510       7.421       7.302       7.117    
        6.877       6.522       6.096       5.680       5.302       5.009       4.724       4.578       4.493       4.350    
        4.121       3.889       3.655       3.443       3.299       3.167       3.036       2.875       2.702       2.498    
        2.138       1.728       1.347      0.9997      0.7575      0.5918      0.4531      0.3199      0.1571       0.000    
  41    10.00       9.889       9.807       9.660       9.445       9.225       9.056       8.920       8.754       8.579    
        8.441       8.266       8.083       7.952       7.794       7.626       7.526       7.432       7.281       7.081    
        6.835       6.490       6.065       5.657       5.281       4.891       4.625       4.545       4.454       4.347    
        4.163       3.884       3.648       3.478       3.334       3.216       3.072       2.917       2.738       2.421    
        1.998       1.598       1.266       1.010      0.8005      0.6466      0.4983      0.3521      0.1854       0.000    
  42    10.00       9.917       9.826       9.686       9.502       9.293       9.101       8.962       8.813       8.622    
        8.446       8.279       8.124       7.999       7.834       7.655       7.536       7.409       7.244       7.019    
        6.738       6.362       5.991       5.589       5.099       4.751       4.609       4.545       4.466       4.350    
        4.136       3.892       3.669       3.498       3.381       3.255       3.127       2.959       2.675       2.254    
        1.884       1.585       1.296       1.006      0.8113      0.6806      0.5382      0.3669      0.2036       0.000    
  43    10.00       9.935       9.838       9.694       9.513       9.341       9.171       9.015       8.833       8.637    
        8.475       8.307       8.154       8.038       7.885       7.686       7.528       7.384       7.159       6.871    
        6.597       6.235       5.891       5.433       4.970       4.739       4.627       4.553       4.477       4.355    
        4.152       3.928       3.714       3.545       3.433       3.307       3.140       2.901       2.487       2.113    
        1.881       1.616       1.312       1.010      0.8040      0.6829      0.5731      0.3971      0.1861       0.000    
  44    10.00       9.928       9.846       9.697       9.533       9.409       9.239       9.029       8.823       8.660    
        8.500       8.333       8.198       8.078       7.900       7.690       7.510       7.337       7.071       6.781    
        6.452       6.090       5.726       5.266       4.918       4.746       4.651       4.586       4.503       4.349    
        4.140       3.961       3.772       3.615       3.501       3.330       3.108       2.765       2.342       2.093    
        1.882       1.604       1.301       1.026      0.8149      0.6855      0.5739      0.3892      0.1715       0.000    
  45    10.00       9.913       9.815       9.696       9.576       9.419       9.242       9.043       8.838       8.676    
        8.510       8.360       8.242       8.105       7.913       7.688       7.486       7.289       7.002       6.660    
        6.281       5.896       5.503       5.163       4.922       4.777       4.683       4.615       4.512       4.386    
        4.205       4.001       3.832       3.671       3.510       3.329       3.085       2.718       2.351       2.060    
        1.818       1.557       1.272       1.026      0.8413      0.7337      0.5669      0.3375      0.1539       0.000    
  46    10.00       9.896       9.794       9.699       9.565       9.385       9.214       9.053       8.852       8.679    
        8.533       8.392       8.274       8.112       7.908       7.708       7.493       7.236       6.924       6.552    
        6.106       5.722       5.407       5.149       4.966       4.837       4.723       4.631       4.550       4.409    
        4.217       4.041       3.876       3.692       3.531       3.358       3.083       2.660       2.273       2.014    
        1.785       1.534       1.266       1.049      0.9063      0.7678      0.5146      0.2530      0.1100       0.000    
  47    10.00       9.889       9.786       9.656       9.501       9.353       9.207       9.032       8.849       8.695    
        8.561       8.436       8.271       8.096       7.913       7.719       7.484       7.185       6.892       6.440    
        5.954       5.654       5.382       5.180       5.009       4.884       4.770       4.659       4.564       4.419    
        4.219       4.044       3.879       3.705       3.565       3.356       2.974       2.594       2.270       1.993    
        1.792       1.554       1.316       1.106      0.9289      0.7052      0.4239      0.2216      9.2275E-02   0.000    
  48    10.00       9.877       9.753       9.615       9.474       9.344       9.195       9.035       8.866       8.714    
        8.579       8.433       8.254       8.073       7.894       7.702       7.478       7.196       6.832       6.383    
        5.961       5.653       5.389       5.203       5.065       4.911       4.796       4.703       4.585       4.389    
        4.193       4.024       3.871       3.742       3.558       3.282       2.918       2.575       2.267       2.023    
        1.807       1.580       1.365       1.128      0.8624      0.5736      0.3627      0.2151      9.7185E-02   0.000    
  49    10.00       9.866       9.732       9.596       9.481       9.346       9.188       9.031       8.895       8.737    
        8.576       8.393       8.216       8.065       7.861       7.675       7.488       7.173       6.813       6.455    
        6.010       5.667       5.404       5.241       5.079       4.914       4.825       4.737       4.550       4.314    
        4.145       4.009       3.898       3.731       3.517       3.270       2.905       2.562       2.321       2.062    
        1.807       1.599       1.369       1.090      0.7642      0.5118      0.3629      0.2342      0.1202       0.000    
  50    10.00       9.871       9.737       9.598       9.473       9.340       9.200       9.046       8.902       8.762    
        8.564       8.373       8.211       8.008       7.801       7.658       7.481       7.236       6.880       6.526    
        6.073       5.641       5.412       5.247       5.078       4.944       4.837       4.719       4.499       4.274    
        4.134       4.022       3.892       3.719       3.521       3.285       2.916       2.564       2.330       2.096    
        1.854       1.591       1.333       1.034      0.7125      0.5238      0.3905      0.2647      0.1597       0.000    

 HEAD WILL BE SAVED ON UNIT   51 AT END OF TIME STEP  69, STRESS PERIOD    2

 DRAWDOWN WILL BE SAVED ON UNIT   52 AT END OF TIME STEP  69, STRESS PERIOD    2
1
  VOLUMETRIC BUDGET FOR ENTIRE MODEL AT END OF TIME STEP 69 IN STRESS PERIOD   2
  ------------------------------------------------------------------------------

     CUMULATIVE VOLUMES      L**3       RATES FOR THIS TIME STEP      L**3/T
     ------------------                 ------------------------

           IN:                                      IN:
           ---                                      ---
             STORAGE =       33716.6133               STORAGE =         459.6545
       CONSTANT HEAD =       26772.1699         CONSTANT HEAD =         407.0695
               WELLS =           0.0000                 WELLS =           0.0000

            TOTAL IN =       60488.7812              TOTAL IN =         866.7240

          OUT:                                     OUT:
          ----                                     ----
             STORAGE =       1.1143E-02               STORAGE =           0.0000
       CONSTANT HEAD =       25988.7676         CONSTANT HEAD =         366.7240
               WELLS =       34500.0000                 WELLS =         500.0000

           TOTAL OUT =       60488.7773             TOTAL OUT =         866.7240

            IN - OUT =       3.9063E-03              IN - OUT =           0.0000

 PERCENT DISCREPANCY =           0.00     PERCENT DISCREPANCY =           0.00






          TIME SUMMARY AT END OF TIME STEP  69 IN STRESS PERIOD    2
                    SECONDS     MINUTES      HOURS       DAYS        YEARS
                    -----------------------------------------------------------
   TIME STEP LENGTH  86400.      1440.0      24.000      1.0000     2.73785E-03
 STRESS PERIOD TIME 5.96160E+06  99360.      1656.0      69.000     0.18891    
         TOTAL TIME 6.04800E+06 1.00800E+05  1680.0      70.000     0.19165    
1
 
 SOLVING FOR HEAD 

 OUTPUT CONTROL FOR STRESS PERIOD    2   TIME STEP  70
    SAVE HEAD FOR ALL LAYERS
    SAVE DRAWDOWN FOR ALL LAYERS
    SAVE BUDGET
    PRINT HEAD FOR ALL LAYERS
    PRINT BUDGET
 UBDSV1 SAVING "         STORAGE" ON UNIT  53 AT TIME STEP 70, STRESS PERIOD   2
 UBDSV2 SAVING "   CONSTANT HEAD" ON UNIT  53 AT TIME STEP 70, STRESS PERIOD   2
 UBDSV1 SAVING "FLOW RIGHT FACE " ON UNIT  53 AT TIME STEP 70, STRESS PERIOD   2
 UBDSV1 SAVING "FLOW FRONT FACE " ON UNIT  53 AT TIME STEP 70, STRESS PERIOD   2
1
              HEAD IN LAYER   1 AT END OF TIME STEP  70 IN STRESS PERIOD    2
  ---------------------------------------------------------------------------

            1           2           3           4           5           6           7           8           9          10
           11          12          13          14          15          16          17          18          19          20
           21          22          23          24          25          26          27          28          29          30
           31          32          33          34          35          36          37          38          39          40
           41          42          43          44          45          46          47          48          49          50
 ........................................................................................................................
   1    10.00       9.951       9.902       9.844       9.799       9.761       9.710       9.639       9.562       9.491    
        9.334       9.138       8.993       8.832       8.661       8.487       8.327       8.142       7.895       7.649    
        7.481       7.290       7.038       6.782       6.553       6.355       6.072       5.814       5.632       5.442    
        5.279       5.175       5.063       4.936       4.815       4.664       4.502       4.284       4.033       3.757    
        3.402       3.039       2.562       2.039       1.645       1.361       1.149      0.9064      0.5322       0.000    
   2    10.00       9.946       9.893       9.845       9.806       9.769       9.712       9.640       9.569       9.473    
        9.320       9.145       8.982       8.835       8.677       8.497       8.306       8.116       7.886       7.638    
        7.455       7.298       7.028       6.751       6.548       6.323       6.050       5.805       5.595       5.415    
        5.278       5.183       5.088       4.953       4.811       4.662       4.476       4.271       4.028       3.714    
        3.382       3.073       2.572       2.053       1.705       1.452       1.207      0.9362      0.5653       0.000    
   3    10.00       9.937       9.893       9.859       9.822       9.784       9.723       9.637       9.551       9.446    
        9.307       9.152       8.995       8.847       8.658       8.433       8.246       8.081       7.869       7.652    
        7.465       7.239       6.973       6.728       6.508       6.256       5.992       5.749       5.534       5.402    
        5.291       5.199       5.105       4.957       4.807       4.647       4.463       4.235       3.962       3.722    
        3.428       3.008       2.520       2.148       1.851       1.558       1.257      0.9489      0.5359       0.000    
   4    10.00       9.937       9.898       9.868       9.842       9.801       9.731       9.632       9.530       9.426    
        9.293       9.153       8.996       8.809       8.576       8.367       8.234       8.048       7.843       7.673    
        7.415       7.129       6.895       6.677       6.463       6.161       5.869       5.675       5.530       5.418    
        5.318       5.222       5.119       4.946       4.762       4.617       4.422       4.185       3.954       3.744    
        3.410       2.947       2.579       2.266       1.948       1.616       1.254      0.8931      0.4578       0.000    
   5    10.00       9.942       9.906       9.876       9.853       9.811       9.736       9.623       9.509       9.405    
        9.292       9.148       8.945       8.726       8.529       8.364       8.197       8.023       7.831       7.591    
        7.290       7.054       6.859       6.639       6.363       6.049       5.811       5.673       5.554       5.440    
        5.325       5.209       5.090       4.923       4.734       4.559       4.384       4.199       3.990       3.713    
        3.335       2.983       2.669       2.354       2.007       1.620       1.165      0.7516      0.3893       0.000    
   6    10.00       9.952       9.917       9.887       9.856       9.809       9.729       9.607       9.507       9.395    
        9.269       9.090       8.867       8.685       8.503       8.314       8.143       7.988       7.772       7.498    
        7.231       7.006       6.806       6.533       6.233       5.997       5.804       5.676       5.543       5.424    
        5.323       5.195       5.048       4.875       4.691       4.541       4.391       4.223       4.003       3.705    
        3.376       3.036       2.715       2.397       2.022       1.553       1.064      0.7064      0.3638       0.000    
   7    10.00       9.958       9.928       9.896       9.862       9.806       9.699       9.581       9.478       9.339    
        9.208       9.017       8.815       8.627       8.439       8.246       8.079       7.936       7.688       7.395    
        7.154       6.923       6.700       6.436       6.182       5.967       5.798       5.643       5.500       5.409    
        5.306       5.163       5.007       4.835       4.677       4.545       4.405       4.234       4.009       3.740    
        3.413       3.064       2.732       2.381       2.010       1.519       1.017      0.6724      0.3183       0.000    
   8    10.00       9.965       9.938       9.904       9.864       9.774       9.643       9.531       9.400       9.268    
        9.123       8.927       8.755       8.562       8.352       8.162       8.017       7.846       7.609       7.325    
        7.045       6.833       6.648       6.375       6.110       5.918       5.728       5.559       5.463       5.374    
        5.249       5.108       4.977       4.827       4.665       4.529       4.422       4.293       4.075       3.767    
        3.410       3.100       2.790       2.383       1.970       1.421      0.9423      0.6584      0.3048       0.000    
   9    10.00       9.972       9.942       9.903       9.836       9.716       9.577       9.445       9.331       9.194    
        9.023       8.848       8.676       8.490       8.272       8.095       7.959       7.755       7.521       7.230    
        6.987       6.776       6.512       6.231       6.007       5.836       5.645       5.506       5.413       5.310    
        5.197       5.071       4.947       4.816       4.678       4.551       4.446       4.331       4.106       3.772    
        3.445       3.171       2.846       2.454       1.843       1.224      0.8975      0.5566      0.2123       0.000    
  10    10.00       9.972       9.940       9.886       9.783       9.640       9.485       9.382       9.274       9.112    
        8.961       8.788       8.616       8.415       8.212       8.053       7.868       7.657       7.410       7.173    
        6.935       6.609       6.335       6.115       5.926       5.771       5.595       5.454       5.361       5.278    
        5.160       5.024       4.913       4.793       4.672       4.586       4.483       4.350       4.093       3.763    
        3.508       3.268       2.895       2.305       1.597       1.148      0.8141      0.4972      0.2481       0.000    
  11    10.00       9.972       9.929       9.845       9.729       9.569       9.431       9.345       9.215       9.076    
        8.932       8.750       8.543       8.327       8.157       7.984       7.810       7.583       7.342       7.109    
        6.765       6.451       6.235       6.037       5.854       5.682       5.514       5.405       5.329       5.246    
        5.111       4.984       4.895       4.788       4.692       4.596       4.479       4.335       4.093       3.830    
        3.563       3.250       2.844       2.193       1.531       1.079      0.7626      0.5787      0.3198       0.000    
  12    10.00       9.970       9.910       9.801       9.648       9.489       9.380       9.293       9.180       9.055    
        8.896       8.701       8.494       8.302       8.128       7.937       7.737       7.503       7.258       6.939    
        6.599       6.362       6.148       5.946       5.744       5.573       5.457       5.377       5.278       5.169    
        5.048       4.957       4.878       4.796       4.712       4.616       4.491       4.318       4.095       3.859    
        3.573       3.232       2.677       1.944       1.380       1.062      0.8463      0.6140      0.3501       0.000    
  13    10.00       9.960       9.866       9.716       9.557       9.420       9.332       9.255       9.159       9.038    
        8.870       8.667       8.476       8.322       8.121       7.885       7.651       7.397       7.123       6.811    
        6.514       6.256       6.024       5.814       5.619       5.496       5.424       5.308       5.181       5.083    
        5.008       4.938       4.867       4.800       4.719       4.636       4.524       4.326       4.100       3.821    
        3.491       3.061       2.416       1.822       1.413       1.142      0.8896      0.6154      0.3042       0.000    
  14    10.00       9.927       9.792       9.627       9.479       9.371       9.311       9.241       9.148       9.015    
        8.829       8.655       8.499       8.339       8.109       7.831       7.578       7.291       6.986       6.662    
        6.373       6.115       5.886       5.680       5.529       5.444       5.355       5.214       5.106       5.034    
        4.981       4.915       4.856       4.793       4.721       4.655       4.523       4.321       4.082       3.734    
        3.346       2.838       2.342       1.909       1.503       1.185      0.9052      0.6160      0.2745       0.000    
  15    10.00       9.863       9.713       9.565       9.446       9.363       9.297       9.231       9.138       9.014    
        8.849       8.680       8.525       8.298       8.028       7.760       7.480       7.182       6.819       6.474    
        6.206       5.956       5.742       5.585       5.473       5.384       5.273       5.142       5.054       5.004    
        4.942       4.889       4.845       4.785       4.718       4.647       4.506       4.315       4.014       3.638    
        3.238       2.782       2.381       1.936       1.594       1.255      0.9166      0.6103      0.2505       0.000    
  16    10.00       9.841       9.677       9.542       9.439       9.363       9.295       9.234       9.144       9.015    
        8.860       8.697       8.505       8.215       7.919       7.696       7.420       7.021       6.607       6.287    
        6.012       5.805       5.630       5.498       5.373       5.293       5.171       5.065       5.000       4.942    
        4.898       4.866       4.820       4.765       4.705       4.622       4.493       4.261       3.934       3.595    
        3.253       2.816       2.366       1.974       1.652       1.297      0.9143      0.5472      0.2061       0.000    
  17    10.00       9.819       9.655       9.546       9.455       9.378       9.311       9.242       9.144       9.023    
        8.878       8.672       8.408       8.095       7.846       7.635       7.295       6.846       6.427       6.119    
        5.900       5.669       5.475       5.333       5.231       5.129       5.023       4.958       4.906       4.877    
        4.863       4.832       4.786       4.731       4.669       4.579       4.427       4.225       3.963       3.610    
        3.221       2.762       2.347       2.001       1.671       1.307      0.9339      0.5703      0.2412       0.000    
  18    10.00       9.809       9.654       9.560       9.477       9.403       9.337       9.253       9.157       9.026    
        8.852       8.608       8.314       8.049       7.805       7.494       7.099       6.690       6.320       6.018    
        5.747       5.452       5.284       5.166       5.078       4.962       4.894       4.838       4.806       4.814    
        4.810       4.785       4.738       4.678       4.613       4.519       4.375       4.213       3.987       3.662    
        3.159       2.671       2.332       2.003       1.723       1.341      0.9293      0.5597      0.2412       0.000    
  19    10.00       9.817       9.688       9.591       9.503       9.429       9.350       9.272       9.183       9.032    
        8.827       8.566       8.275       7.979       7.656       7.319       6.954       6.559       6.187       5.867    
        5.552       5.296       5.162       5.072       4.945       4.842       4.785       4.735       4.727       4.731    
        4.740       4.726       4.671       4.617       4.565       4.494       4.360       4.184       3.956       3.576    
        3.070       2.656       2.319       1.996       1.682       1.287      0.8935      0.5567      0.2625       0.000    
  20    10.00       9.827       9.717       9.632       9.547       9.458       9.366       9.282       9.192       9.038    
        8.815       8.543       8.204       7.820       7.448       7.174       6.807       6.384       6.058       5.740    
        5.460       5.247       5.086       4.948       4.786       4.714       4.678       4.653       4.658       4.659    
        4.666       4.644       4.601       4.571       4.531       4.460       4.306       4.129       3.869       3.444    
        3.009       2.679       2.290       1.921       1.578       1.188      0.8964      0.5531      0.2454       0.000    
  21    10.00       9.852       9.753       9.667       9.574       9.490       9.388       9.296       9.199       9.025    
        8.783       8.451       8.027       7.578       7.234       6.984       6.639       6.331       6.025       5.681    
        5.415       5.181       4.979       4.716       4.582       4.545       4.489       4.529       4.564       4.561    
        4.558       4.532       4.529       4.516       4.485       4.390       4.240       4.088       3.711       3.268    
        2.944       2.587       2.190       1.846       1.482       1.141      0.8117      0.4873      0.2449       0.000    
  22    10.00       9.884       9.780       9.686       9.597       9.516       9.400       9.282       9.168       8.989    
        8.692       8.274       7.796       7.375       7.080       6.820       6.558       6.335       5.998       5.662    
        5.381       5.046       4.682       4.408       4.307       4.208       4.222       4.328       4.368       4.389    
        4.407       4.407       4.434       4.454       4.426       4.329       4.182       3.899       3.470       3.187    
        2.839       2.454       2.096       1.765       1.455       1.050      0.7045      0.4671      0.2627       0.000    
  23    10.00       9.885       9.785       9.701       9.606       9.500       9.368       9.261       9.161       8.934    
        8.570       8.121       7.685       7.318       7.016       6.796       6.550       6.257       5.935       5.666    
        5.277       4.784       4.395       4.116       3.707       3.707       3.926       4.048       4.136       4.223    
        4.262       4.296       4.336       4.370       4.345       4.250       4.036       3.712       3.364       3.016    
        2.682       2.364       2.020       1.758       1.366      0.9547      0.6852      0.4491      0.2333       0.000    
  24    10.00       9.910       9.797       9.686       9.576       9.454       9.336       9.244       9.131       8.865    
        8.450       8.026       7.665       7.345       7.056       6.767       6.466       6.200       5.945       5.630    
        5.164       4.675       4.213       3.371       2.472       2.995       3.497       3.790       3.954       4.090    
        4.164       4.213       4.261       4.275       4.248       4.124       3.885       3.621       3.240       2.871    
        2.610       2.304       1.979       1.644       1.223      0.8857      0.6588      0.4205      0.1856       0.000    
  25    10.00       9.902       9.771       9.635       9.507       9.396       9.305       9.213       9.074       8.797    
        8.362       7.967       7.690       7.391       7.056       6.757       6.475       6.243       6.005       5.599    
        5.066       4.585       3.846       2.478     -0.3765       2.376       3.169       3.633       3.877       4.019    
        4.105       4.162       4.202       4.205       4.164       4.024       3.770       3.460       3.150       2.840    
        2.543       2.212       1.841       1.488       1.088      0.8127      0.6555      0.4084      0.1514       0.000    
  26    10.00       9.878       9.709       9.556       9.453       9.363       9.274       9.160       8.996       8.654    
        8.250       7.973       7.707       7.409       7.096       6.808       6.542       6.311       6.012       5.580    
        5.111       4.580       3.933       3.192       2.512       2.870       3.342       3.668       3.867       3.998    
        4.079       4.138       4.162       4.152       4.089       3.918       3.632       3.383       3.135       2.801    
        2.494       2.119       1.694       1.314      0.9882      0.7946      0.6193      0.3635      0.1547       0.000    
  27    10.00       9.851       9.671       9.528       9.441       9.324       9.206       9.062       8.843       8.519    
        8.232       7.987       7.717       7.426       7.119       6.891       6.706       6.394       6.017       5.576    
        5.178       4.793       4.271       3.782       3.396       3.454       3.634       3.793       3.920       4.013    
        4.097       4.145       4.150       4.118       4.029       3.832       3.604       3.385       3.096       2.783    
        2.466       2.013       1.526       1.170      0.9425      0.7809      0.5884      0.3839      0.1852       0.000    
  28    10.00       9.831       9.700       9.540       9.391       9.248       9.117       8.947       8.728       8.477    
        8.241       8.022       7.754       7.430       7.156       6.971       6.766       6.422       5.985       5.596    
        5.313       5.025       4.613       4.231       3.985       3.903       3.895       3.944       4.025       4.101    
        4.154       4.165       4.154       4.100       3.980       3.800       3.617       3.358       3.058       2.742    
        2.353       1.927       1.444       1.091      0.9318      0.7773      0.6062      0.4007      0.1858       0.000    
  29    10.00       9.837       9.673       9.504       9.326       9.187       9.039       8.851       8.666       8.466    
        8.256       8.039       7.778       7.504       7.269       7.050       6.777       6.395       5.997       5.694    
        5.452       5.198       4.859       4.519       4.317       4.207       4.138       4.135       4.174       4.198    
        4.201       4.194       4.163       4.086       3.947       3.791       3.620       3.378       3.045       2.644    
        2.288       1.835       1.352       1.075      0.9346      0.7826      0.6014      0.3912      0.1946       0.000    
  30    10.00       9.813       9.648       9.445       9.264       9.137       8.979       8.813       8.670       8.491    
        8.275       8.041       7.804       7.585       7.376       7.129       6.781       6.426       6.106       5.817    
        5.608       5.357       5.048       4.752       4.509       4.411       4.347       4.322       4.298       4.275    
        4.249       4.223       4.171       4.069       3.941       3.816       3.644       3.332       2.919       2.508    
        2.145       1.728       1.360       1.104      0.9556      0.7841      0.5906      0.4099      0.2012       0.000    
  31    10.00       9.789       9.598       9.403       9.240       9.108       8.958       8.811       8.670       8.495    
        8.283       8.048       7.842       7.662       7.465       7.188       6.844       6.535       6.282       6.024    
        5.801       5.517       5.212       4.963       4.715       4.557       4.493       4.430       4.384       4.336    
        4.300       4.249       4.175       4.074       3.949       3.808       3.534       3.184       2.839       2.437    
        2.094       1.677       1.318       1.132      0.9730      0.8116      0.6102      0.4103      0.1945       0.000    
  32    10.00       9.773       9.567       9.401       9.264       9.132       8.975       8.808       8.636       8.472    
        8.263       8.060       7.877       7.678       7.496       7.262       6.994       6.761       6.500       6.233    
        6.008       5.742       5.434       5.166       4.909       4.684       4.598       4.517       4.451       4.383    
        4.332       4.281       4.182       4.054       3.935       3.738       3.398       3.067       2.762       2.394    
        1.993       1.604       1.339       1.196       1.022      0.8183      0.6054      0.3896      0.1944       0.000    
  33    10.00       9.766       9.590       9.457       9.320       9.166       8.979       8.794       8.610       8.422    
        8.249       8.078       7.898       7.708       7.506       7.324       7.128       6.929       6.715       6.455    
        6.193       5.944       5.684       5.370       5.055       4.799       4.670       4.590       4.508       4.422    
        4.360       4.287       4.179       4.054       3.880       3.606       3.257       2.975       2.679       2.249    
        1.884       1.628       1.417       1.246       1.049      0.8341      0.5733      0.3427      0.1545       0.000    
  34    10.00       9.787       9.643       9.518       9.366       9.179       8.981       8.765       8.563       8.406    
        8.251       8.095       7.932       7.737       7.559       7.383       7.213       7.055       6.851       6.586    
        6.339       6.112       5.855       5.529       5.183       4.898       4.731       4.636       4.543       4.447    
        4.364       4.285       4.176       4.020       3.806       3.469       3.127       2.871       2.518       2.138    
        1.911       1.742       1.539       1.319       1.059      0.7565      0.4633      0.2744      0.1138       0.000    
  35    10.00       9.822       9.693       9.566       9.404       9.193       8.968       8.728       8.536       8.402    
        8.298       8.141       7.962       7.754       7.565       7.440       7.315       7.153       6.942       6.690    
        6.454       6.230       5.993       5.628       5.237       4.965       4.782       4.671       4.565       4.455    
        4.370       4.276       4.148       3.944       3.613       3.261       3.031       2.763       2.401       2.171    
        2.012       1.820       1.616       1.401       1.071      0.6434      0.3559      0.2341      0.1188       0.000    
  36    10.00       9.843       9.731       9.610       9.438       9.189       8.914       8.689       8.551       8.447    
        8.306       8.128       7.964       7.781       7.614       7.490       7.372       7.229       7.062       6.829    
        6.585       6.347       6.057       5.666       5.280       5.004       4.830       4.700       4.569       4.456    
        4.361       4.241       4.038       3.734       3.431       3.186       2.969       2.687       2.398       2.244    
        2.082       1.910       1.704       1.426      0.9778      0.5422      0.3345      0.2141      0.1100       0.000    
  37    10.00       9.860       9.773       9.643       9.414       9.142       8.900       8.724       8.610       8.485    
        8.303       8.114       7.973       7.815       7.660       7.542       7.434       7.301       7.125       6.924    
        6.724       6.465       6.104       5.735       5.369       5.057       4.849       4.687       4.567       4.446    
        4.325       4.149       3.847       3.569       3.354       3.142       2.916       2.694       2.485       2.313    
        2.158       1.964       1.730       1.365      0.8971      0.5234      0.3136      0.1994      9.9987E-02   0.000    
  38    10.00       9.881       9.777       9.634       9.398       9.117       8.913       8.783       8.664       8.519    
        8.326       8.127       7.988       7.843       7.690       7.572       7.479       7.363       7.192       7.018    
        6.834       6.540       6.131       5.733       5.375       5.071       4.845       4.665       4.546       4.433    
        4.266       3.978       3.709       3.531       3.316       3.105       2.942       2.752       2.561       2.396    
        2.212       1.948       1.650       1.254      0.7894      0.5023      0.3534      0.2202      9.8822E-02   0.000    
  39    10.00       9.880       9.762       9.613       9.385       9.131       8.947       8.832       8.687       8.527    
        8.371       8.171       8.012       7.875       7.727       7.602       7.497       7.385       7.248       7.090    
        6.879       6.568       6.148       5.704       5.335       5.054       4.798       4.615       4.519       4.412    
        4.160       3.857       3.684       3.481       3.281       3.129       2.992       2.819       2.633       2.478    
        2.212       1.837       1.486       1.058      0.7051      0.5445      0.4054      0.2640      0.1358       0.000    
  40    10.00       9.871       9.767       9.616       9.406       9.194       9.015       8.863       8.693       8.545    
        8.429       8.235       8.035       7.896       7.759       7.619       7.504       7.415       7.296       7.111    
        6.871       6.516       6.089       5.673       5.295       5.003       4.718       4.572       4.487       4.345    
        4.116       3.884       3.651       3.439       3.296       3.164       3.033       2.872       2.699       2.495    
        2.136       1.726       1.346      0.9989      0.7569      0.5913      0.4528      0.3196      0.1570       0.000    
  41    10.00       9.889       9.806       9.659       9.444       9.224       9.053       8.917       8.751       8.576    
        8.438       8.262       8.078       7.947       7.789       7.621       7.521       7.427       7.275       7.075    
        6.829       6.485       6.059       5.652       5.275       4.886       4.621       4.540       4.449       4.342    
        4.158       3.880       3.644       3.474       3.331       3.213       3.069       2.914       2.736       2.418    
        1.996       1.597       1.265       1.009      0.7999      0.6462      0.4980      0.3519      0.1853       0.000    
  42    10.00       9.917       9.826       9.685       9.501       9.291       9.099       8.960       8.810       8.619    
        8.443       8.275       8.120       7.994       7.829       7.650       7.531       7.403       7.239       7.013    
        6.733       6.357       5.987       5.584       5.094       4.747       4.605       4.541       4.462       4.346    
        4.132       3.888       3.666       3.494       3.378       3.251       3.124       2.956       2.673       2.252    
        1.882       1.584       1.295       1.005      0.8108      0.6801      0.5379      0.3666      0.2035       0.000    
  43    10.00       9.935       9.837       9.694       9.512       9.339       9.169       9.013       8.830       8.634    
        8.472       8.304       8.151       8.035       7.881       7.682       7.524       7.379       7.154       6.867    
        6.593       6.231       5.887       5.429       4.967       4.736       4.623       4.549       4.474       4.351    
        4.148       3.924       3.711       3.542       3.430       3.304       3.137       2.898       2.485       2.111    
        1.879       1.615       1.311       1.010      0.8035      0.6825      0.5728      0.3968      0.1860       0.000    
  44    10.00       9.928       9.845       9.696       9.532       9.407       9.237       9.027       8.821       8.658    
        8.497       8.330       8.195       8.074       7.897       7.686       7.506       7.333       7.068       6.777    
        6.449       6.087       5.722       5.263       4.915       4.743       4.647       4.582       4.499       4.346    
        4.137       3.958       3.769       3.612       3.497       3.328       3.106       2.763       2.341       2.092    
        1.880       1.603       1.300       1.025      0.8144      0.6851      0.5736      0.3890      0.1714       0.000    
  45    10.00       9.913       9.815       9.695       9.576       9.418       9.240       9.042       8.837       8.674    
        8.508       8.358       8.239       8.103       7.910       7.685       7.483       7.286       6.999       6.657    
        6.278       5.893       5.500       5.161       4.919       4.773       4.680       4.612       4.509       4.383    
        4.202       3.998       3.829       3.668       3.507       3.327       3.083       2.716       2.349       2.059    
        1.817       1.556       1.272       1.025      0.8408      0.7333      0.5666      0.3373      0.1538       0.000    
  46    10.00       9.896       9.793       9.698       9.565       9.385       9.213       9.051       8.851       8.677    
        8.531       8.391       8.272       8.110       7.906       7.706       7.490       7.233       6.922       6.550    
        6.103       5.720       5.405       5.146       4.963       4.834       4.719       4.628       4.546       4.406    
        4.214       4.038       3.873       3.690       3.529       3.355       3.081       2.658       2.272       2.013    
        1.784       1.533       1.266       1.049      0.9059      0.7674      0.5143      0.2528      0.1099       0.000    
  47    10.00       9.889       9.786       9.655       9.500       9.353       9.206       9.031       8.848       8.693    
        8.560       8.435       8.270       8.094       7.911       7.717       7.482       7.182       6.890       6.438    
        5.952       5.651       5.380       5.177       5.007       4.881       4.767       4.656       4.561       4.416    
        4.216       4.042       3.876       3.703       3.562       3.354       2.972       2.592       2.269       1.992    
        1.791       1.554       1.315       1.106      0.9285      0.7049      0.4238      0.2215      9.2238E-02   0.000    
  48    10.00       9.877       9.753       9.614       9.473       9.343       9.194       9.034       8.865       8.713    
        8.578       8.432       8.252       8.072       7.892       7.701       7.477       7.194       6.830       6.381    
        5.959       5.651       5.387       5.201       5.062       4.909       4.793       4.700       4.583       4.387    
        4.191       4.021       3.869       3.740       3.556       3.280       2.917       2.574       2.266       2.022    
        1.806       1.580       1.365       1.127      0.8620      0.5734      0.3626      0.2150      9.7152E-02   0.000    
  49    10.00       9.866       9.732       9.595       9.480       9.345       9.187       9.030       8.894       8.736    
        8.574       8.392       8.215       8.064       7.859       7.673       7.487       7.171       6.811       6.453    
        6.008       5.665       5.402       5.239       5.077       4.912       4.822       4.734       4.547       4.311    
        4.143       4.007       3.896       3.729       3.516       3.269       2.904       2.561       2.321       2.061    
        1.806       1.598       1.369       1.089      0.7639      0.5116      0.3628      0.2342      0.1201       0.000    
  50    10.00       9.871       9.737       9.598       9.473       9.340       9.199       9.045       8.901       8.761    
        8.562       8.371       8.210       8.007       7.799       7.657       7.480       7.235       6.878       6.524    
        6.071       5.639       5.410       5.245       5.076       4.942       4.835       4.717       4.496       4.272    
        4.132       4.020       3.890       3.717       3.520       3.284       2.915       2.563       2.329       2.095    
        1.853       1.590       1.333       1.033      0.7123      0.5236      0.3904      0.2646      0.1596       0.000    

 HEAD WILL BE SAVED ON UNIT   51 AT END OF TIME STEP  70, STRESS PERIOD    2

 DRAWDOWN WILL BE SAVED ON UNIT   52 AT END OF TIME STEP  70, STRESS PERIOD    2
1
  VOLUMETRIC BUDGET FOR ENTIRE MODEL AT END OF TIME STEP 70 IN STRESS PERIOD   2
  ------------------------------------------------------------------------------

     CUMULATIVE VOLUMES      L**3       RATES FOR THIS TIME STEP      L**3/T
     ------------------                 ------------------------

           IN:                                      IN:
           ---                                      ---
             STORAGE =       34174.9648               STORAGE =         458.3517
       CONSTANT HEAD =       27180.2559         CONSTANT HEAD =         408.0864
               WELLS =           0.0000                 WELLS =           0.0000

            TOTAL IN =       61355.2188              TOTAL IN =         866.4381

          OUT:                                     OUT:
          ----                                     ----
             STORAGE =       1.1143E-02               STORAGE =           0.0000
       CONSTANT HEAD =       26355.2051         CONSTANT HEAD =         366.4381
               WELLS =       35000.0000                 WELLS =         500.0000

           TOTAL OUT =       61355.2148             TOTAL OUT =         866.4381

            IN - OUT =       3.9063E-03              IN - OUT =           0.0000

 PERCENT DISCREPANCY =           0.00     PERCENT DISCREPANCY =           0.00






          TIME SUMMARY AT END OF TIME STEP  70 IN STRESS PERIOD    2
                    SECONDS     MINUTES      HOURS       DAYS        YEARS
                    -----------------------------------------------------------
   TIME STEP LENGTH  86400.      1440.0      24.000      1.0000     2.73785E-03
 STRESS PERIOD TIME 6.04800E+06 1.00800E+05  1680.0      70.000     0.19165    
         TOTAL TIME 6.13440E+06 1.02240E+05  1704.0      71.000     0.19439    
1
 
 SOLVING FOR HEAD 

 OUTPUT CONTROL FOR STRESS PERIOD    2   TIME STEP  71
    SAVE HEAD FOR ALL LAYERS
    SAVE DRAWDOWN FOR ALL LAYERS
    SAVE BUDGET
    PRINT HEAD FOR ALL LAYERS
    PRINT BUDGET
 UBDSV1 SAVING "         STORAGE" ON UNIT  53 AT TIME STEP 71, STRESS PERIOD   2
 UBDSV2 SAVING "   CONSTANT HEAD" ON UNIT  53 AT TIME STEP 71, STRESS PERIOD   2
 UBDSV1 SAVING "FLOW RIGHT FACE " ON UNIT  53 AT TIME STEP 71, STRESS PERIOD   2
 UBDSV1 SAVING "FLOW FRONT FACE " ON UNIT  53 AT TIME STEP 71, STRESS PERIOD   2
1
              HEAD IN LAYER   1 AT END OF TIME STEP  71 IN STRESS PERIOD    2
  ---------------------------------------------------------------------------

            1           2           3           4           5           6           7           8           9          10
           11          12          13          14          15          16          17          18          19          20
           21          22          23          24          25          26          27          28          29          30
           31          32          33          34          35          36          37          38          39          40
           41          42          43          44          45          46          47          48          49          50
 ........................................................................................................................
   1    10.00       9.951       9.902       9.844       9.799       9.760       9.709       9.638       9.561       9.490    
        9.333       9.137       8.992       8.831       8.659       8.485       8.324       8.139       7.892       7.646    
        7.478       7.286       7.033       6.777       6.549       6.350       6.067       5.809       5.627       5.437    
        5.274       5.169       5.058       4.931       4.810       4.660       4.498       4.279       4.029       3.754    
        3.399       3.037       2.560       2.038       1.644       1.360       1.148      0.9058      0.5318       0.000    
   2    10.00       9.945       9.893       9.844       9.806       9.769       9.712       9.639       9.568       9.472    
        9.319       9.143       8.981       8.833       8.675       8.495       8.304       8.113       7.883       7.634    
        7.451       7.294       7.024       6.747       6.544       6.319       6.045       5.799       5.590       5.410    
        5.273       5.177       5.083       4.948       4.806       4.657       4.471       4.267       4.024       3.711    
        3.379       3.071       2.570       2.052       1.703       1.451       1.207      0.9355      0.5649       0.000    
   3    10.00       9.937       9.893       9.859       9.822       9.784       9.722       9.636       9.550       9.445    
        9.306       9.150       8.993       8.845       8.655       8.430       8.243       8.078       7.866       7.648    
        7.461       7.235       6.969       6.724       6.503       6.251       5.987       5.744       5.529       5.396    
        5.285       5.194       5.100       4.951       4.802       4.643       4.459       4.230       3.958       3.719    
        3.425       3.006       2.517       2.146       1.850       1.557       1.257      0.9482      0.5355       0.000    
   4    10.00       9.937       9.898       9.867       9.842       9.801       9.730       9.631       9.529       9.425    
        9.292       9.152       8.994       8.807       8.574       8.365       8.231       8.045       7.840       7.669    
        7.411       7.125       6.890       6.673       6.458       6.156       5.864       5.669       5.524       5.412    
        5.313       5.217       5.114       4.941       4.757       4.612       4.417       4.181       3.950       3.740    
        3.407       2.944       2.577       2.264       1.947       1.614       1.253      0.8924      0.4575       0.000    
   5    10.00       9.942       9.906       9.876       9.853       9.811       9.736       9.622       9.508       9.404    
        9.290       9.146       8.944       8.724       8.526       8.361       8.194       8.020       7.828       7.587    
        7.286       7.049       6.854       6.634       6.358       6.044       5.805       5.667       5.549       5.434    
        5.320       5.203       5.085       4.917       4.729       4.554       4.379       4.194       3.985       3.709    
        3.332       2.980       2.666       2.352       2.006       1.618       1.164      0.7511      0.3890       0.000    
   6    10.00       9.951       9.917       9.887       9.855       9.809       9.729       9.606       9.506       9.394    
        9.267       9.088       8.865       8.683       8.500       8.311       8.140       7.984       7.769       7.494    
        7.227       7.001       6.801       6.527       6.227       5.991       5.798       5.670       5.537       5.418    
        5.317       5.189       5.042       4.869       4.685       4.536       4.385       4.218       3.998       3.701    
        3.372       3.033       2.713       2.395       2.020       1.552       1.064      0.7059      0.3635       0.000    
   7    10.00       9.958       9.927       9.896       9.862       9.806       9.698       9.580       9.477       9.337    
        9.207       9.015       8.812       8.624       8.436       8.243       8.076       7.932       7.683       7.391    
        7.148       6.918       6.695       6.430       6.176       5.960       5.792       5.637       5.493       5.402    
        5.299       5.157       5.001       4.829       4.672       4.539       4.399       4.228       4.004       3.736    
        3.409       3.061       2.729       2.379       2.009       1.518       1.017      0.6719      0.3181       0.000    
   8    10.00       9.965       9.938       9.904       9.864       9.773       9.642       9.530       9.399       9.267    
        9.121       8.924       8.752       8.559       8.348       8.158       8.013       7.842       7.605       7.320    
        7.039       6.827       6.642       6.369       6.104       5.912       5.721       5.552       5.456       5.367    
        5.242       5.101       4.970       4.820       4.659       4.523       4.416       4.288       4.070       3.762    
        3.406       3.097       2.788       2.381       1.968       1.420      0.9415      0.6579      0.3045       0.000    
   9    10.00       9.972       9.942       9.902       9.836       9.716       9.576       9.444       9.329       9.192    
        9.020       8.845       8.673       8.487       8.268       8.091       7.954       7.750       7.516       7.224    
        6.981       6.770       6.505       6.224       5.999       5.828       5.638       5.498       5.405       5.302    
        5.190       5.063       4.940       4.809       4.671       4.544       4.440       4.325       4.101       3.768    
        3.441       3.167       2.843       2.452       1.842       1.223      0.8968      0.5562      0.2122       0.000    
  10    10.00       9.972       9.940       9.885       9.782       9.639       9.483       9.381       9.272       9.110    
        8.959       8.785       8.613       8.411       8.208       8.048       7.863       7.652       7.404       7.167    
        6.928       6.602       6.328       6.107       5.918       5.763       5.587       5.446       5.353       5.270    
        5.152       5.016       4.906       4.786       4.665       4.580       4.476       4.344       4.087       3.758    
        3.504       3.264       2.892       2.302       1.596       1.147      0.8134      0.4968      0.2479       0.000    
  11    10.00       9.972       9.929       9.844       9.728       9.567       9.429       9.343       9.213       9.074    
        8.930       8.747       8.540       8.323       8.152       7.979       7.805       7.577       7.336       7.103    
        6.758       6.444       6.227       6.029       5.846       5.673       5.505       5.396       5.321       5.238    
        5.103       4.976       4.887       4.780       4.684       4.589       4.472       4.328       4.087       3.825    
        3.558       3.246       2.841       2.191       1.530       1.078      0.7619      0.5782      0.3195       0.000    
  12    10.00       9.970       9.909       9.800       9.648       9.488       9.378       9.292       9.177       9.052    
        8.893       8.698       8.490       8.298       8.124       7.932       7.732       7.497       7.251       6.932    
        6.591       6.354       6.140       5.938       5.735       5.564       5.448       5.368       5.269       5.160    
        5.040       4.949       4.870       4.788       4.704       4.609       4.484       4.311       4.089       3.854    
        3.568       3.228       2.674       1.942       1.379       1.061      0.8455      0.6134      0.3498       0.000    
  13    10.00       9.960       9.865       9.715       9.556       9.418       9.330       9.253       9.156       9.035    
        8.867       8.663       8.472       8.318       8.116       7.880       7.645       7.391       7.116       6.804    
        6.505       6.248       6.015       5.805       5.610       5.486       5.415       5.299       5.172       5.074    
        4.999       4.929       4.859       4.791       4.711       4.628       4.516       4.320       4.094       3.816    
        3.487       3.057       2.413       1.820       1.411       1.141      0.8887      0.6149      0.3039       0.000    
  14    10.00       9.927       9.791       9.626       9.477       9.369       9.309       9.239       9.146       9.012    
        8.826       8.652       8.495       8.334       8.104       7.825       7.572       7.284       6.979       6.654    
        6.364       6.106       5.877       5.670       5.519       5.434       5.345       5.204       5.097       5.025    
        4.972       4.905       4.847       4.784       4.712       4.647       4.515       4.313       4.076       3.728    
        3.342       2.834       2.339       1.907       1.501       1.184      0.9043      0.6154      0.2742       0.000    
  15    10.00       9.863       9.712       9.564       9.445       9.361       9.295       9.229       9.136       9.011    
        8.846       8.676       8.521       8.293       8.022       7.754       7.473       7.175       6.811       6.465    
        6.196       5.947       5.732       5.575       5.463       5.374       5.263       5.132       5.044       4.994    
        4.933       4.880       4.836       4.776       4.709       4.638       4.498       4.308       4.007       3.633    
        3.233       2.778       2.378       1.933       1.592       1.254      0.9157      0.6097      0.2502       0.000    
  16    10.00       9.840       9.676       9.540       9.438       9.362       9.293       9.232       9.142       9.012    
        8.857       8.693       8.500       8.210       7.913       7.690       7.413       7.013       6.598       6.278    
        6.002       5.795       5.620       5.487       5.363       5.283       5.161       5.055       4.990       4.932    
        4.888       4.856       4.810       4.755       4.696       4.613       4.484       4.254       3.927       3.589    
        3.248       2.812       2.363       1.972       1.650       1.296      0.9134      0.5467      0.2059       0.000    
  17    10.00       9.819       9.654       9.544       9.453       9.376       9.309       9.240       9.141       9.020    
        8.874       8.668       8.403       8.089       7.839       7.628       7.288       6.837       6.417       6.109    
        5.889       5.658       5.464       5.322       5.220       5.118       5.012       4.948       4.895       4.866    
        4.853       4.822       4.776       4.721       4.659       4.570       4.418       4.217       3.956       3.604    
        3.216       2.758       2.344       1.998       1.669       1.305      0.9330      0.5698      0.2410       0.000    
  18    10.00       9.808       9.653       9.559       9.476       9.401       9.335       9.251       9.154       9.023    
        8.848       8.604       8.309       8.043       7.798       7.487       7.091       6.680       6.310       6.007    
        5.737       5.441       5.273       5.155       5.067       4.950       4.883       4.827       4.795       4.803    
        4.800       4.774       4.728       4.668       4.604       4.510       4.366       4.205       3.979       3.656    
        3.154       2.667       2.329       2.001       1.721       1.339      0.9285      0.5592      0.2410       0.000    
  19    10.00       9.816       9.687       9.590       9.502       9.427       9.348       9.270       9.181       9.029    
        8.823       8.562       8.269       7.973       7.649       7.311       6.945       6.549       6.176       5.856    
        5.541       5.284       5.151       5.060       4.934       4.831       4.774       4.723       4.715       4.720    
        4.729       4.715       4.661       4.607       4.555       4.484       4.351       4.175       3.948       3.569    
        3.065       2.652       2.316       1.994       1.680       1.285      0.8927      0.5562      0.2623       0.000    
  20    10.00       9.826       9.716       9.630       9.546       9.457       9.364       9.280       9.189       9.035    
        8.811       8.539       8.198       7.813       7.441       7.165       6.798       6.374       6.047       5.729    
        5.449       5.236       5.075       4.936       4.774       4.703       4.666       4.641       4.646       4.648    
        4.654       4.633       4.590       4.561       4.521       4.450       4.296       4.120       3.862       3.437    
        3.004       2.675       2.287       1.919       1.576       1.187      0.8956      0.5526      0.2452       0.000    
  21    10.00       9.852       9.752       9.666       9.573       9.488       9.386       9.294       9.196       9.022    
        8.779       8.446       8.021       7.570       7.225       6.974       6.630       6.320       6.014       5.670    
        5.404       5.169       4.967       4.704       4.570       4.533       4.477       4.517       4.552       4.549    
        4.547       4.521       4.517       4.505       4.474       4.379       4.231       4.079       3.703       3.262    
        2.939       2.584       2.187       1.844       1.480       1.140      0.8110      0.4869      0.2447       0.000    
  22    10.00       9.883       9.779       9.685       9.595       9.515       9.398       9.280       9.165       8.985    
        8.688       8.268       7.789       7.367       7.071       6.811       6.548       6.325       5.988       5.650    
        5.370       5.034       4.670       4.396       4.295       4.196       4.210       4.316       4.356       4.377    
        4.395       4.395       4.422       4.442       4.414       4.318       4.172       3.891       3.463       3.182    
        2.834       2.451       2.094       1.763       1.454       1.049      0.7039      0.4667      0.2625       0.000    
  23    10.00       9.885       9.784       9.700       9.605       9.498       9.366       9.258       9.158       8.931    
        8.566       8.115       7.678       7.310       7.007       6.787       6.540       6.247       5.924       5.655    
        5.265       4.772       4.383       4.104       3.695       3.694       3.914       4.035       4.123       4.210    
        4.249       4.284       4.323       4.358       4.334       4.239       4.026       3.704       3.358       3.011    
        2.678       2.360       2.017       1.756       1.365      0.9538      0.6845      0.4487      0.2331       0.000    
  24    10.00       9.910       9.796       9.685       9.575       9.452       9.334       9.241       9.128       8.861    
        8.445       8.019       7.657       7.336       7.047       6.758       6.456       6.190       5.934       5.619    
        5.152       4.663       4.201       3.358       2.459       2.982       3.484       3.777       3.941       4.077    
        4.151       4.200       4.248       4.263       4.236       4.113       3.876       3.613       3.234       2.866    
        2.606       2.301       1.976       1.643       1.222      0.8848      0.6582      0.4201      0.1855       0.000    
  25    10.00       9.902       9.770       9.634       9.505       9.394       9.303       9.210       9.071       8.793    
        8.357       7.960       7.683       7.383       7.047       6.748       6.465       6.232       5.994       5.588    
        5.054       4.573       3.833       2.465     -0.3905       2.362       3.156       3.620       3.864       4.006    
        4.092       4.149       4.190       4.192       4.152       4.013       3.760       3.452       3.144       2.834    
        2.539       2.209       1.838       1.486       1.087      0.8119      0.6548      0.4080      0.1513       0.000    
  26    10.00       9.877       9.708       9.555       9.451       9.361       9.271       9.157       8.993       8.650    
        8.244       7.966       7.700       7.401       7.087       6.798       6.532       6.300       6.001       5.568    
        5.099       4.568       3.920       3.179       2.499       2.857       3.329       3.655       3.854       3.985    
        4.066       4.125       4.150       4.139       4.077       3.907       3.623       3.375       3.128       2.796    
        2.490       2.116       1.692       1.313      0.9871      0.7938      0.6187      0.3631      0.1546       0.000    
  27    10.00       9.850       9.670       9.526       9.439       9.322       9.203       9.059       8.839       8.514    
        8.227       7.981       7.710       7.418       7.110       6.881       6.697       6.383       6.006       5.565    
        5.166       4.781       4.258       3.769       3.383       3.441       3.620       3.780       3.907       4.000    
        4.084       4.132       4.138       4.106       4.018       3.821       3.594       3.377       3.089       2.777    
        2.461       2.010       1.524       1.168      0.9415      0.7801      0.5878      0.3835      0.1850       0.000    
  28    10.00       9.831       9.699       9.538       9.389       9.245       9.114       8.944       8.724       8.472    
        8.235       8.016       7.747       7.422       7.147       6.962       6.756       6.412       5.974       5.585    
        5.302       5.013       4.601       4.219       3.972       3.890       3.882       3.931       4.012       4.088    
        4.141       4.152       4.142       4.088       3.969       3.790       3.608       3.350       3.051       2.736    
        2.349       1.924       1.442       1.089      0.9308      0.7765      0.6056      0.4003      0.1857       0.000    
  29    10.00       9.836       9.672       9.502       9.324       9.185       9.036       8.847       8.661       8.461    
        8.250       8.033       7.772       7.497       7.261       7.042       6.767       6.385       5.986       5.683    
        5.441       5.186       4.847       4.506       4.305       4.194       4.125       4.123       4.161       4.186    
        4.189       4.181       4.151       4.074       3.936       3.781       3.611       3.370       3.038       2.639    
        2.284       1.832       1.350       1.073      0.9335      0.7817      0.6007      0.3908      0.1944       0.000    
  30    10.00       9.813       9.647       9.443       9.262       9.134       8.976       8.809       8.666       8.486    
        8.270       8.035       7.797       7.578       7.368       7.121       6.772       6.417       6.096       5.806    
        5.597       5.345       5.036       4.740       4.497       4.399       4.335       4.310       4.286       4.263    
        4.237       4.211       4.160       4.058       3.930       3.806       3.635       3.324       2.913       2.503    
        2.142       1.726       1.359       1.102      0.9545      0.7833      0.5900      0.4095      0.2010       0.000    
  31    10.00       9.788       9.596       9.401       9.238       9.105       8.955       8.808       8.665       8.491    
        8.278       8.042       7.836       7.655       7.458       7.180       6.835       6.525       6.272       6.014    
        5.791       5.505       5.200       4.951       4.703       4.545       4.481       4.418       4.372       4.324    
        4.288       4.237       4.164       4.063       3.938       3.798       3.526       3.177       2.833       2.432    
        2.090       1.675       1.316       1.130      0.9719      0.8107      0.6096      0.4098      0.1943       0.000    
  32    10.00       9.772       9.566       9.399       9.261       9.129       8.972       8.805       8.632       8.468    
        8.258       8.054       7.871       7.671       7.489       7.254       6.985       6.752       6.491       6.223    
        5.998       5.731       5.423       5.154       4.897       4.672       4.586       4.505       4.439       4.372    
        4.320       4.270       4.171       4.043       3.925       3.729       3.390       3.060       2.756       2.390    
        1.990       1.602       1.338       1.194       1.021      0.8174      0.6047      0.3892      0.1942       0.000    
  33    10.00       9.765       9.589       9.455       9.317       9.164       8.976       8.790       8.606       8.418    
        8.244       8.072       7.892       7.702       7.499       7.316       7.120       6.921       6.707       6.445    
        6.183       5.933       5.674       5.359       5.043       4.788       4.659       4.578       4.497       4.411    
        4.349       4.276       4.169       4.044       3.870       3.598       3.250       2.969       2.675       2.246    
        1.881       1.626       1.416       1.245       1.047      0.8331      0.5727      0.3424      0.1543       0.000    
  34    10.00       9.786       9.642       9.516       9.364       9.176       8.978       8.762       8.559       8.402    
        8.245       8.089       7.926       7.731       7.552       7.376       7.206       7.047       6.842       6.577    
        6.329       6.102       5.845       5.519       5.172       4.887       4.720       4.625       4.533       4.437    
        4.353       4.275       4.166       4.011       3.798       3.462       3.121       2.866       2.514       2.135    
        1.909       1.740       1.537       1.317       1.058      0.7557      0.4628      0.2742      0.1137       0.000    
  35    10.00       9.821       9.692       9.565       9.402       9.191       8.965       8.725       8.532       8.397    
        8.293       8.136       7.956       7.748       7.558       7.433       7.308       7.145       6.934       6.681    
        6.445       6.220       5.983       5.618       5.226       4.954       4.772       4.661       4.554       4.445    
        4.360       4.267       4.139       3.936       3.606       3.255       3.026       2.759       2.398       2.168    
        2.010       1.818       1.614       1.399       1.070      0.6428      0.3556      0.2338      0.1187       0.000    
  36    10.00       9.843       9.730       9.609       9.436       9.186       8.911       8.685       8.547       8.442    
        8.301       8.123       7.958       7.775       7.608       7.483       7.365       7.221       7.054       6.821    
        6.576       6.338       6.047       5.656       5.269       4.994       4.820       4.690       4.559       4.446    
        4.352       4.232       4.029       3.727       3.425       3.181       2.965       2.684       2.395       2.241    
        2.080       1.908       1.702       1.425      0.9767      0.5417      0.3341      0.2139      0.1099       0.000    
  37    10.00       9.860       9.773       9.642       9.413       9.140       8.897       8.721       8.606       8.481    
        8.299       8.109       7.967       7.809       7.654       7.535       7.427       7.294       7.118       6.916    
        6.716       6.457       6.095       5.726       5.359       5.048       4.840       4.677       4.559       4.437    
        4.316       4.141       3.840       3.563       3.349       3.137       2.913       2.691       2.482       2.311    
        2.155       1.961       1.728       1.364      0.8962      0.5229      0.3134      0.1992      9.9898E-02   0.000    
  38    10.00       9.881       9.776       9.633       9.396       9.115       8.910       8.779       8.661       8.515    
        8.322       8.122       7.983       7.838       7.684       7.566       7.472       7.357       7.185       7.010    
        6.826       6.532       6.123       5.724       5.367       5.063       4.837       4.657       4.538       4.426    
        4.258       3.972       3.703       3.526       3.312       3.101       2.938       2.749       2.558       2.393    
        2.209       1.945       1.648       1.253      0.7886      0.5019      0.3531      0.2200      9.8741E-02   0.000    
  39    10.00       9.880       9.761       9.612       9.383       9.129       8.944       8.828       8.684       8.523    
        8.367       8.166       8.007       7.870       7.721       7.596       7.491       7.379       7.241       7.083    
        6.872       6.561       6.141       5.696       5.328       5.047       4.792       4.608       4.512       4.406    
        4.154       3.852       3.679       3.477       3.277       3.125       2.989       2.816       2.630       2.475    
        2.209       1.835       1.485       1.057      0.7046      0.5441      0.4051      0.2638      0.1357       0.000    
  40    10.00       9.871       9.767       9.615       9.405       9.192       9.012       8.860       8.689       8.542    
        8.425       8.230       8.030       7.891       7.754       7.613       7.498       7.409       7.289       7.104    
        6.864       6.509       6.083       5.666       5.289       4.996       4.712       4.567       4.482       4.340    
        4.112       3.880       3.646       3.435       3.292       3.160       3.030       2.869       2.697       2.493    
        2.133       1.725       1.345      0.9981      0.7563      0.5909      0.4524      0.3194      0.1568       0.000    
  41    10.00       9.888       9.806       9.658       9.443       9.222       9.051       8.915       8.748       8.572    
        8.434       8.258       8.074       7.942       7.784       7.616       7.515       7.421       7.269       7.070    
        6.824       6.479       6.053       5.646       5.269       4.881       4.616       4.535       4.444       4.337    
        4.154       3.876       3.640       3.471       3.328       3.209       3.066       2.911       2.733       2.416    
        1.994       1.595       1.264       1.009      0.7993      0.6457      0.4976      0.3516      0.1852       0.000    
  42    10.00       9.917       9.825       9.685       9.500       9.290       9.097       8.957       8.808       8.616    
        8.439       8.271       8.116       7.990       7.825       7.645       7.525       7.398       7.233       7.008    
        6.728       6.352       5.982       5.579       5.090       4.742       4.600       4.537       4.458       4.341    
        4.128       3.884       3.662       3.491       3.375       3.248       3.120       2.953       2.670       2.250    
        1.881       1.582       1.294       1.005      0.8102      0.6797      0.5375      0.3664      0.2033       0.000    
  43    10.00       9.935       9.837       9.693       9.511       9.338       9.167       9.011       8.828       8.631    
        8.469       8.301       8.147       8.031       7.877       7.677       7.519       7.375       7.150       6.863    
        6.588       6.227       5.883       5.425       4.963       4.732       4.619       4.545       4.470       4.348    
        4.144       3.921       3.707       3.538       3.427       3.301       3.134       2.896       2.483       2.109    
        1.878       1.613       1.310       1.009      0.8030      0.6821      0.5725      0.3966      0.1859       0.000    
  44    10.00       9.927       9.845       9.696       9.531       9.406       9.236       9.025       8.819       8.656    
        8.495       8.327       8.192       8.071       7.893       7.683       7.502       7.329       7.064       6.774    
        6.445       6.083       5.719       5.260       4.912       4.739       4.644       4.579       4.496       4.342    
        4.134       3.954       3.766       3.609       3.494       3.325       3.103       2.761       2.339       2.090    
        1.879       1.602       1.299       1.025      0.8140      0.6847      0.5733      0.3888      0.1713       0.000    
  45    10.00       9.913       9.814       9.695       9.575       9.417       9.239       9.040       8.835       8.672    
        8.506       8.355       8.237       8.100       7.907       7.683       7.480       7.283       6.996       6.654    
        6.275       5.890       5.497       5.158       4.916       4.770       4.677       4.608       4.505       4.379    
        4.198       3.994       3.826       3.665       3.504       3.324       3.080       2.714       2.348       2.057    
        1.815       1.555       1.271       1.025      0.8404      0.7329      0.5663      0.3371      0.1537       0.000    
  46    10.00       9.895       9.793       9.698       9.564       9.384       9.212       9.050       8.849       8.675    
        8.529       8.389       8.270       8.108       7.903       7.703       7.488       7.231       6.919       6.547    
        6.101       5.717       5.402       5.143       4.960       4.831       4.716       4.625       4.543       4.403    
        4.211       4.035       3.870       3.687       3.527       3.353       3.079       2.657       2.271       2.012    
        1.783       1.532       1.265       1.049      0.9054      0.7671      0.5141      0.2527      0.1099       0.000    
  47    10.00       9.889       9.786       9.655       9.500       9.352       9.205       9.030       8.847       8.692    
        8.558       8.433       8.268       8.092       7.909       7.715       7.480       7.180       6.888       6.436    
        5.949       5.649       5.377       5.174       5.004       4.878       4.764       4.653       4.558       4.413    
        4.213       4.039       3.874       3.700       3.560       3.351       2.971       2.591       2.267       1.991    
        1.791       1.553       1.315       1.105      0.9281      0.7046      0.4236      0.2214      9.2200E-02   0.000    
  48    10.00       9.877       9.753       9.614       9.473       9.342       9.193       9.033       8.864       8.712    
        8.576       8.430       8.251       8.070       7.890       7.699       7.475       7.192       6.828       6.379    
        5.957       5.649       5.384       5.198       5.060       4.906       4.791       4.698       4.580       4.384    
        4.188       4.019       3.866       3.737       3.554       3.278       2.915       2.572       2.265       2.021    
        1.805       1.579       1.364       1.127      0.8617      0.5732      0.3624      0.2150      9.7118E-02   0.000    
  49    10.00       9.866       9.731       9.595       9.480       9.344       9.186       9.029       8.893       8.735    
        8.573       8.390       8.213       8.062       7.858       7.671       7.485       7.169       6.809       6.451    
        6.006       5.662       5.399       5.236       5.074       4.909       4.819       4.731       4.545       4.309    
        4.140       4.004       3.894       3.727       3.514       3.267       2.903       2.560       2.320       2.060    
        1.806       1.598       1.368       1.089      0.7636      0.5114      0.3627      0.2341      0.1201       0.000    
  50    10.00       9.871       9.736       9.598       9.472       9.339       9.199       9.044       8.900       8.760    
        8.561       8.370       8.208       8.005       7.798       7.655       7.478       7.233       6.877       6.522    
        6.069       5.637       5.408       5.242       5.073       4.939       4.832       4.714       4.494       4.269    
        4.130       4.017       3.888       3.715       3.518       3.282       2.913       2.562       2.328       2.094    
        1.852       1.590       1.332       1.033      0.7121      0.5234      0.3903      0.2645      0.1596       0.000    

 HEAD WILL BE SAVED ON UNIT   51 AT END OF TIME STEP  71, STRESS PERIOD    2

 DRAWDOWN WILL BE SAVED ON UNIT   52 AT END OF TIME STEP  71, STRESS PERIOD    2
1
  VOLUMETRIC BUDGET FOR ENTIRE MODEL AT END OF TIME STEP 71 IN STRESS PERIOD   2
  ------------------------------------------------------------------------------

     CUMULATIVE VOLUMES      L**3       RATES FOR THIS TIME STEP      L**3/T
     ------------------                 ------------------------

           IN:                                      IN:
           ---                                      ---
             STORAGE =       34632.0039               STORAGE =         457.0392
       CONSTANT HEAD =       27589.3613         CONSTANT HEAD =         409.1063
               WELLS =           0.0000                 WELLS =           0.0000

            TOTAL IN =       62221.3672              TOTAL IN =         866.1455

          OUT:                                     OUT:
          ----                                     ----
             STORAGE =       1.1143E-02               STORAGE =           0.0000
       CONSTANT HEAD =       26721.3516         CONSTANT HEAD =         366.1457
               WELLS =       35500.0000                 WELLS =         500.0000

           TOTAL OUT =       62221.3633             TOTAL OUT =         866.1458

            IN - OUT =       3.9063E-03              IN - OUT =      -2.4414E-04

 PERCENT DISCREPANCY =           0.00     PERCENT DISCREPANCY =           0.00






          TIME SUMMARY AT END OF TIME STEP  71 IN STRESS PERIOD    2
                    SECONDS     MINUTES      HOURS       DAYS        YEARS
                    -----------------------------------------------------------
   TIME STEP LENGTH  86400.      1440.0      24.000      1.0000     2.73785E-03
 STRESS PERIOD TIME 6.13440E+06 1.02240E+05  1704.0      71.000     0.19439    
         TOTAL TIME 6.22080E+06 1.03680E+05  1728.0      72.000     0.19713    
1
 
 SOLVING FOR HEAD 

 OUTPUT CONTROL FOR STRESS PERIOD    2   TIME STEP  72
    SAVE HEAD FOR ALL LAYERS
    SAVE DRAWDOWN FOR ALL LAYERS
    SAVE BUDGET
    PRINT HEAD FOR ALL LAYERS
    PRINT BUDGET
 UBDSV1 SAVING "         STORAGE" ON UNIT  53 AT TIME STEP 72, STRESS PERIOD   2
 UBDSV2 SAVING "   CONSTANT HEAD" ON UNIT  53 AT TIME STEP 72, STRESS PERIOD   2
 UBDSV1 SAVING "FLOW RIGHT FACE " ON UNIT  53 AT TIME STEP 72, STRESS PERIOD   2
 UBDSV1 SAVING "FLOW FRONT FACE " ON UNIT  53 AT TIME STEP 72, STRESS PERIOD   2
1
              HEAD IN LAYER   1 AT END OF TIME STEP  72 IN STRESS PERIOD    2
  ---------------------------------------------------------------------------

            1           2           3           4           5           6           7           8           9          10
           11          12          13          14          15          16          17          18          19          20
           21          22          23          24          25          26          27          28          29          30
           31          32          33          34          35          36          37          38          39          40
           41          42          43          44          45          46          47          48          49          50
 ........................................................................................................................
   1    10.00       9.951       9.902       9.844       9.798       9.760       9.709       9.638       9.560       9.489    
        9.332       9.135       8.990       8.829       8.657       8.483       8.321       8.136       7.889       7.642    
        7.474       7.282       7.029       6.773       6.544       6.345       6.062       5.804       5.622       5.432    
        5.269       5.164       5.053       4.926       4.805       4.655       4.494       4.275       4.025       3.750    
        3.396       3.034       2.558       2.036       1.643       1.359       1.148      0.9051      0.5314       0.000    
   2    10.00       9.945       9.893       9.844       9.806       9.768       9.711       9.639       9.568       9.471    
        9.318       9.142       8.979       8.831       8.672       8.493       8.301       8.110       7.879       7.631    
        7.448       7.290       7.020       6.742       6.539       6.314       6.040       5.794       5.584       5.405    
        5.268       5.172       5.078       4.943       4.801       4.652       4.467       4.263       4.020       3.707    
        3.376       3.068       2.568       2.050       1.702       1.450       1.206      0.9349      0.5645       0.000    
   3    10.00       9.937       9.893       9.859       9.822       9.783       9.722       9.636       9.549       9.445    
        9.305       9.149       8.992       8.843       8.653       8.428       8.240       8.075       7.863       7.645    
        7.457       7.231       6.964       6.719       6.498       6.246       5.982       5.739       5.523       5.391    
        5.280       5.189       5.095       4.946       4.797       4.638       4.454       4.226       3.955       3.715    
        3.422       3.003       2.515       2.144       1.848       1.556       1.256      0.9475      0.5352       0.000    
   4    10.00       9.937       9.898       9.867       9.842       9.801       9.730       9.630       9.528       9.424    
        9.291       9.150       8.993       8.805       8.571       8.362       8.228       8.042       7.836       7.666    
        7.408       7.120       6.886       6.668       6.453       6.150       5.858       5.663       5.519       5.406    
        5.307       5.211       5.109       4.936       4.752       4.607       4.413       4.177       3.946       3.737    
        3.404       2.942       2.574       2.263       1.945       1.613       1.252      0.8918      0.4572       0.000    
   5    10.00       9.942       9.906       9.876       9.853       9.810       9.735       9.622       9.507       9.403    
        9.289       9.145       8.942       8.722       8.524       8.358       8.191       8.017       7.824       7.583    
        7.282       7.045       6.850       6.629       6.352       6.038       5.799       5.661       5.543       5.428    
        5.314       5.197       5.079       4.912       4.724       4.549       4.374       4.190       3.981       3.706    
        3.329       2.977       2.664       2.350       2.004       1.617       1.164      0.7505      0.3887       0.000    
   6    10.00       9.951       9.916       9.887       9.855       9.808       9.728       9.605       9.505       9.393    
        9.266       9.086       8.863       8.680       8.497       8.308       8.136       7.981       7.765       7.489    
        7.222       6.996       6.795       6.522       6.221       5.985       5.792       5.664       5.531       5.411    
        5.311       5.183       5.036       4.863       4.680       4.530       4.380       4.213       3.994       3.697    
        3.369       3.030       2.710       2.393       2.018       1.551       1.063      0.7053      0.3632       0.000    
   7    10.00       9.958       9.927       9.896       9.862       9.805       9.698       9.580       9.476       9.336    
        9.205       9.013       8.810       8.622       8.433       8.240       8.072       7.928       7.679       7.386    
        7.143       6.912       6.689       6.424       6.170       5.954       5.785       5.630       5.487       5.396    
        5.293       5.151       4.995       4.822       4.666       4.534       4.394       4.223       4.000       3.731    
        3.406       3.058       2.726       2.377       2.007       1.516       1.016      0.6714      0.3178       0.000    
   8    10.00       9.965       9.938       9.903       9.864       9.773       9.641       9.529       9.398       9.265    
        9.120       8.922       8.749       8.556       8.345       8.154       8.009       7.837       7.600       7.315    
        7.033       6.822       6.636       6.362       6.097       5.905       5.714       5.545       5.449       5.360    
        5.235       5.094       4.963       4.813       4.653       4.517       4.411       4.282       4.065       3.758    
        3.402       3.093       2.785       2.379       1.967       1.419      0.9407      0.6573      0.3043       0.000    
   9    10.00       9.972       9.941       9.902       9.835       9.715       9.575       9.443       9.328       9.190    
        9.018       8.842       8.670       8.484       8.265       8.087       7.950       7.745       7.511       7.218    
        6.975       6.763       6.498       6.217       5.992       5.821       5.630       5.491       5.398       5.295    
        5.182       5.056       4.932       4.802       4.664       4.538       4.433       4.319       4.096       3.763    
        3.437       3.164       2.840       2.449       1.840       1.221      0.8960      0.5557      0.2120       0.000    
  10    10.00       9.972       9.940       9.885       9.782       9.638       9.482       9.379       9.270       9.107    
        8.957       8.782       8.610       8.408       8.204       8.044       7.858       7.647       7.398       7.161    
        6.922       6.595       6.321       6.100       5.910       5.755       5.578       5.438       5.345       5.262    
        5.145       5.008       4.898       4.779       4.658       4.573       4.470       4.337       4.081       3.753    
        3.499       3.260       2.889       2.300       1.594       1.146      0.8127      0.4964      0.2477       0.000    
  11    10.00       9.972       9.929       9.844       9.727       9.566       9.428       9.342       9.211       9.072    
        8.927       8.743       8.536       8.319       8.148       7.974       7.800       7.572       7.330       7.097    
        6.751       6.436       6.219       6.021       5.837       5.665       5.497       5.388       5.312       5.229    
        5.094       4.968       4.879       4.773       4.677       4.582       4.465       4.322       4.081       3.820    
        3.554       3.242       2.838       2.188       1.528       1.077      0.7612      0.5776      0.3192       0.000    
  12    10.00       9.970       9.909       9.800       9.647       9.486       9.376       9.290       9.175       9.050    
        8.890       8.695       8.486       8.294       8.119       7.927       7.726       7.491       7.245       6.925    
        6.583       6.346       6.131       5.929       5.726       5.555       5.439       5.359       5.260       5.151    
        5.031       4.940       4.862       4.780       4.696       4.601       4.477       4.305       4.083       3.848    
        3.563       3.224       2.671       1.939       1.378       1.060      0.8447      0.6128      0.3495       0.000    
  13    10.00       9.960       9.865       9.715       9.555       9.417       9.328       9.251       9.154       9.032    
        8.863       8.659       8.468       8.314       8.111       7.875       7.639       7.385       7.109       6.796    
        6.497       6.239       6.006       5.796       5.601       5.477       5.406       5.290       5.162       5.065    
        4.990       4.920       4.850       4.783       4.703       4.620       4.509       4.313       4.087       3.810    
        3.482       3.053       2.410       1.818       1.410       1.139      0.8878      0.6143      0.3036       0.000    
  14    10.00       9.927       9.790       9.624       9.476       9.367       9.307       9.237       9.143       9.009    
        8.823       8.648       8.491       8.330       8.099       7.820       7.566       7.278       6.972       6.646    
        6.356       6.097       5.868       5.660       5.510       5.425       5.336       5.194       5.087       5.015    
        4.963       4.896       4.838       4.776       4.704       4.638       4.507       4.306       4.069       3.723    
        3.337       2.831       2.336       1.905       1.499       1.183      0.9034      0.6148      0.2740       0.000    
  15    10.00       9.863       9.711       9.562       9.443       9.359       9.293       9.226       9.133       9.008    
        8.843       8.673       8.517       8.288       8.017       7.748       7.466       7.168       6.803       6.456    
        6.187       5.937       5.722       5.566       5.453       5.364       5.253       5.122       5.034       4.984    
        4.923       4.870       4.826       4.767       4.701       4.630       4.489       4.300       4.000       3.627    
        3.228       2.775       2.375       1.931       1.590       1.253      0.9148      0.6091      0.2500       0.000    
  16    10.00       9.840       9.675       9.539       9.436       9.360       9.291       9.230       9.139       9.009    
        8.853       8.690       8.496       8.204       7.907       7.683       7.405       7.005       6.589       6.269    
        5.993       5.785       5.610       5.477       5.353       5.272       5.151       5.045       4.979       4.922    
        4.878       4.846       4.801       4.746       4.686       4.604       4.476       4.246       3.920       3.583    
        3.243       2.808       2.360       1.970       1.648       1.294      0.9125      0.5462      0.2057       0.000    
  17    10.00       9.818       9.653       9.543       9.451       9.374       9.307       9.237       9.139       9.017    
        8.871       8.664       8.398       8.083       7.833       7.621       7.280       6.829       6.408       6.099    
        5.879       5.648       5.453       5.311       5.209       5.107       5.002       4.937       4.885       4.856    
        4.842       4.812       4.766       4.712       4.650       4.561       4.410       4.209       3.949       3.597    
        3.211       2.754       2.341       1.996       1.667       1.304      0.9320      0.5693      0.2408       0.000    
  18    10.00       9.807       9.652       9.557       9.474       9.400       9.333       9.248       9.151       9.020    
        8.845       8.600       8.304       8.037       7.791       7.479       7.083       6.671       6.300       5.997    
        5.726       5.430       5.262       5.144       5.055       4.939       4.872       4.816       4.784       4.792    
        4.789       4.764       4.718       4.658       4.594       4.500       4.358       4.196       3.971       3.649    
        3.149       2.663       2.326       1.998       1.719       1.338      0.9276      0.5587      0.2408       0.000    
  19    10.00       9.816       9.686       9.588       9.500       9.425       9.346       9.268       9.178       9.026    
        8.819       8.557       8.264       7.967       7.641       7.303       6.936       6.540       6.166       5.845    
        5.530       5.273       5.140       5.049       4.922       4.820       4.763       4.712       4.704       4.709    
        4.718       4.705       4.650       4.596       4.545       4.475       4.342       4.166       3.940       3.563    
        3.060       2.648       2.313       1.991       1.678       1.284      0.8918      0.5557      0.2621       0.000    
  20    10.00       9.826       9.715       9.629       9.544       9.455       9.362       9.277       9.187       9.032    
        8.807       8.534       8.193       7.806       7.433       7.157       6.788       6.364       6.036       5.718    
        5.437       5.225       5.063       4.925       4.763       4.691       4.655       4.630       4.635       4.637    
        4.643       4.621       4.579       4.550       4.510       4.440       4.287       4.112       3.854       3.431    
        2.999       2.671       2.284       1.916       1.575       1.186      0.8948      0.5522      0.2450       0.000    
  21    10.00       9.851       9.752       9.665       9.572       9.486       9.384       9.292       9.193       9.019    
        8.775       8.441       8.014       7.563       7.217       6.965       6.620       6.310       6.003       5.659    
        5.393       5.158       4.955       4.692       4.558       4.522       4.465       4.505       4.540       4.538    
        4.535       4.509       4.506       4.494       4.464       4.369       4.221       4.070       3.696       3.256    
        2.934       2.580       2.184       1.841       1.479       1.139      0.8103      0.4865      0.2445       0.000    
  22    10.00       9.883       9.778       9.684       9.594       9.513       9.396       9.277       9.162       8.982    
        8.683       8.262       7.781       7.359       7.062       6.801       6.538       6.315       5.977       5.639    
        5.359       5.022       4.658       4.384       4.283       4.184       4.198       4.304       4.344       4.365    
        4.383       4.383       4.411       4.431       4.403       4.308       4.163       3.883       3.457       3.176    
        2.830       2.447       2.091       1.761       1.452       1.048      0.7033      0.4663      0.2623       0.000    
  23    10.00       9.885       9.784       9.699       9.604       9.497       9.364       9.256       9.155       8.927    
        8.561       8.108       7.670       7.302       6.998       6.777       6.530       6.236       5.913       5.644    
        5.254       4.760       4.371       4.092       3.682       3.682       3.901       4.023       4.111       4.198    
        4.237       4.271       4.311       4.346       4.322       4.229       4.016       3.696       3.351       3.005    
        2.674       2.357       2.014       1.754       1.363      0.9529      0.6839      0.4483      0.2329       0.000    
  24    10.00       9.910       9.796       9.684       9.574       9.451       9.332       9.239       9.126       8.857    
        8.440       8.013       7.650       7.328       7.038       6.748       6.446       6.179       5.923       5.607    
        5.141       4.651       4.189       3.345       2.446       2.969       3.471       3.764       3.929       4.065    
        4.139       4.187       4.235       4.250       4.225       4.102       3.866       3.605       3.227       2.861    
        2.602       2.297       1.973       1.641       1.220      0.8839      0.6576      0.4198      0.1853       0.000    
  25    10.00       9.902       9.769       9.633       9.503       9.392       9.301       9.208       9.068       8.789    
        8.351       7.954       7.675       7.375       7.038       6.738       6.455       6.222       5.984       5.576    
        5.042       4.561       3.821       2.452     -0.4043       2.349       3.143       3.607       3.851       3.993    
        4.079       4.136       4.177       4.180       4.140       4.002       3.751       3.444       3.137       2.829    
        2.534       2.205       1.836       1.484       1.085      0.8111      0.6542      0.4076      0.1511       0.000    
  26    10.00       9.877       9.707       9.553       9.449       9.359       9.269       9.154       8.989       8.645    
        8.238       7.960       7.692       7.393       7.078       6.789       6.522       6.290       5.990       5.557    
        5.087       4.556       3.908       3.167       2.486       2.844       3.316       3.642       3.841       3.972    
        4.053       4.112       4.137       4.127       4.065       3.896       3.614       3.367       3.121       2.790    
        2.485       2.113       1.689       1.311      0.9860      0.7929      0.6181      0.3628      0.1544       0.000    
  27    10.00       9.850       9.669       9.525       9.437       9.319       9.201       9.056       8.835       8.509    
        8.221       7.974       7.703       7.410       7.101       6.872       6.687       6.373       5.995       5.554    
        5.155       4.769       4.246       3.757       3.370       3.428       3.608       3.767       3.894       3.987    
        4.071       4.119       4.125       4.094       4.006       3.811       3.585       3.369       3.082       2.772    
        2.457       2.007       1.522       1.167      0.9404      0.7792      0.5872      0.3831      0.1848       0.000    
  28    10.00       9.830       9.698       9.536       9.387       9.243       9.111       8.940       8.720       8.467    
        8.230       8.009       7.740       7.414       7.139       6.953       6.747       6.402       5.964       5.574    
        5.290       5.001       4.589       4.207       3.960       3.877       3.870       3.918       3.999       4.075    
        4.129       4.140       4.129       4.076       3.958       3.780       3.599       3.342       3.044       2.730    
        2.345       1.921       1.440       1.088      0.9297      0.7756      0.6049      0.3999      0.1855       0.000    
  29    10.00       9.836       9.671       9.500       9.322       9.182       9.033       8.844       8.657       8.456    
        8.245       8.026       7.765       7.489       7.253       7.033       6.758       6.376       5.976       5.672    
        5.430       5.175       4.836       4.494       4.292       4.182       4.112       4.110       4.149       4.173    
        4.176       4.169       4.138       4.062       3.926       3.771       3.601       3.362       3.031       2.633    
        2.280       1.829       1.349       1.072      0.9324      0.7809      0.6001      0.3904      0.1942       0.000    
  30    10.00       9.812       9.646       9.441       9.260       9.132       8.972       8.806       8.661       8.481    
        8.265       8.029       7.790       7.570       7.360       7.112       6.763       6.407       6.086       5.795    
        5.586       5.334       5.024       4.728       4.485       4.387       4.322       4.297       4.273       4.251    
        4.225       4.199       4.148       4.047       3.920       3.796       3.625       3.316       2.907       2.498    
        2.138       1.723       1.357       1.101      0.9534      0.7824      0.5893      0.4091      0.2007       0.000    
  31    10.00       9.787       9.595       9.400       9.236       9.103       8.952       8.804       8.661       8.486    
        8.272       8.036       7.829       7.648       7.450       7.172       6.827       6.516       6.262       6.004    
        5.780       5.494       5.189       4.939       4.691       4.533       4.469       4.406       4.360       4.312    
        4.277       4.226       4.153       4.052       3.928       3.788       3.517       3.170       2.828       2.428    
        2.087       1.672       1.315       1.129      0.9708      0.8098      0.6089      0.4094      0.1941       0.000    
  32    10.00       9.771       9.565       9.397       9.259       9.126       8.969       8.801       8.628       8.463    
        8.253       8.048       7.865       7.665       7.482       7.246       6.977       6.743       6.481       6.213    
        5.988       5.721       5.412       5.143       4.886       4.661       4.575       4.493       4.428       4.360    
        4.309       4.259       4.160       4.033       3.915       3.719       3.383       3.054       2.751       2.385    
        1.987       1.600       1.336       1.193       1.020      0.8165      0.6041      0.3888      0.1940       0.000    
  33    10.00       9.764       9.587       9.453       9.315       9.161       8.973       8.786       8.602       8.413    
        8.238       8.066       7.886       7.695       7.492       7.309       7.112       6.913       6.698       6.436    
        6.174       5.923       5.663       5.348       5.032       4.776       4.648       4.567       4.486       4.400    
        4.338       4.266       4.159       4.034       3.861       3.590       3.243       2.964       2.670       2.242    
        1.879       1.624       1.414       1.244       1.046      0.8322      0.5720      0.3420      0.1541       0.000    
  34    10.00       9.785       9.641       9.515       9.362       9.174       8.975       8.758       8.555       8.397    
        8.240       8.084       7.921       7.724       7.545       7.368       7.198       7.039       6.834       6.568    
        6.320       6.092       5.835       5.508       5.161       4.876       4.709       4.614       4.522       4.426    
        4.343       4.265       4.157       4.001       3.789       3.455       3.115       2.861       2.511       2.132    
        1.907       1.738       1.536       1.316       1.056      0.7548      0.4623      0.2739      0.1136       0.000    
  35    10.00       9.821       9.691       9.563       9.400       9.189       8.962       8.721       8.528       8.393    
        8.288       8.131       7.950       7.742       7.551       7.426       7.301       7.138       6.926       6.673    
        6.436       6.211       5.973       5.608       5.216       4.944       4.761       4.651       4.544       4.435    
        4.350       4.257       4.130       3.927       3.599       3.249       3.021       2.754       2.395       2.165    
        2.007       1.815       1.612       1.398       1.069      0.6421      0.3552      0.2336      0.1186       0.000    
  36    10.00       9.842       9.730       9.607       9.435       9.184       8.908       8.681       8.543       8.438    
        8.296       8.118       7.953       7.769       7.601       7.477       7.358       7.214       7.047       6.813    
        6.567       6.329       6.038       5.647       5.259       4.983       4.810       4.680       4.549       4.437    
        4.342       4.223       4.021       3.720       3.420       3.176       2.960       2.680       2.392       2.239    
        2.078       1.906       1.700       1.423      0.9757      0.5411      0.3338      0.2137      0.1098       0.000    
  37    10.00       9.859       9.772       9.641       9.411       9.138       8.894       8.717       8.602       8.477    
        8.294       8.104       7.962       7.803       7.648       7.529       7.420       7.287       7.111       6.909    
        6.708       6.448       6.086       5.717       5.350       5.039       4.830       4.668       4.550       4.428    
        4.307       4.133       3.834       3.558       3.343       3.133       2.909       2.687       2.479       2.308    
        2.153       1.959       1.726       1.362      0.8953      0.5224      0.3131      0.1990      9.9808E-02   0.000    
  38    10.00       9.880       9.776       9.632       9.395       9.113       8.907       8.776       8.657       8.511    
        8.317       8.117       7.978       7.832       7.678       7.559       7.466       7.350       7.178       7.003    
        6.818       6.524       6.115       5.716       5.358       5.054       4.829       4.649       4.531       4.418    
        4.251       3.965       3.698       3.521       3.307       3.097       2.934       2.746       2.555       2.390    
        2.207       1.943       1.647       1.252      0.7879      0.5014      0.3528      0.2198      9.8659E-02   0.000    
  39    10.00       9.879       9.761       9.611       9.382       9.127       8.941       8.825       8.681       8.520    
        8.363       8.161       8.001       7.864       7.716       7.590       7.485       7.373       7.235       7.076    
        6.865       6.554       6.133       5.688       5.320       5.039       4.785       4.601       4.506       4.399    
        4.148       3.847       3.675       3.473       3.273       3.122       2.985       2.813       2.627       2.472    
        2.207       1.833       1.483       1.056      0.7040      0.5436      0.4048      0.2636      0.1356       0.000    
  40    10.00       9.870       9.766       9.614       9.403       9.190       9.010       8.857       8.686       8.538    
        8.421       8.226       8.025       7.886       7.749       7.608       7.492       7.403       7.283       7.098    
        6.858       6.503       6.076       5.660       5.282       4.990       4.707       4.561       4.476       4.334    
        4.107       3.875       3.642       3.431       3.289       3.157       3.026       2.866       2.694       2.490    
        2.131       1.723       1.344      0.9973      0.7557      0.5905      0.4521      0.3192      0.1567       0.000    
  41    10.00       9.888       9.805       9.657       9.441       9.220       9.049       8.912       8.745       8.569    
        8.430       8.254       8.069       7.938       7.779       7.610       7.510       7.415       7.263       7.064    
        6.818       6.473       6.048       5.640       5.264       4.876       4.611       4.531       4.440       4.333    
        4.150       3.872       3.636       3.467       3.324       3.206       3.063       2.908       2.730       2.413    
        1.992       1.594       1.263       1.008      0.7987      0.6453      0.4973      0.3514      0.1851       0.000    
  42    10.00       9.917       9.825       9.684       9.498       9.288       9.095       8.955       8.805       8.613    
        8.436       8.268       8.112       7.986       7.820       7.640       7.520       7.393       7.228       7.003    
        6.724       6.348       5.977       5.575       5.085       4.738       4.596       4.532       4.454       4.337    
        4.124       3.880       3.659       3.488       3.371       3.245       3.117       2.950       2.668       2.248    
        1.879       1.581       1.293       1.004      0.8096      0.6792      0.5372      0.3662      0.2032       0.000    
  43    10.00       9.934       9.837       9.692       9.511       9.337       9.165       9.009       8.826       8.629    
        8.466       8.297       8.144       8.027       7.873       7.673       7.515       7.370       7.145       6.859    
        6.584       6.223       5.879       5.421       4.959       4.728       4.615       4.542       4.466       4.344    
        4.141       3.917       3.704       3.535       3.424       3.298       3.132       2.893       2.480       2.108    
        1.876       1.612       1.309       1.008      0.8025      0.6817      0.5721      0.3964      0.1857       0.000    
  44    10.00       9.927       9.845       9.695       9.531       9.405       9.235       9.024       8.817       8.653    
        8.492       8.325       8.189       8.068       7.890       7.679       7.498       7.326       7.060       6.770    
        6.442       6.080       5.716       5.256       4.908       4.736       4.640       4.575       4.492       4.339    
        4.130       3.951       3.763       3.606       3.491       3.322       3.100       2.758       2.337       2.089    
        1.878       1.601       1.299       1.024      0.8135      0.6843      0.5729      0.3885      0.1712       0.000    
  45    10.00       9.913       9.814       9.694       9.574       9.416       9.238       9.039       8.833       8.670    
        8.504       8.353       8.234       8.097       7.905       7.680       7.476       7.280       6.993       6.651    
        6.272       5.887       5.494       5.155       4.913       4.767       4.673       4.605       4.502       4.376    
        4.195       3.991       3.823       3.662       3.501       3.322       3.078       2.713       2.346       2.056    
        1.814       1.554       1.270       1.024      0.8400      0.7325      0.5659      0.3369      0.1536       0.000    
  46    10.00       9.895       9.793       9.698       9.563       9.383       9.211       9.049       8.848       8.674    
        8.528       8.387       8.268       8.106       7.901       7.701       7.485       7.228       6.917       6.545    
        6.098       5.714       5.399       5.141       4.957       4.828       4.713       4.621       4.540       4.399    
        4.208       4.032       3.867       3.684       3.524       3.351       3.077       2.655       2.269       2.011    
        1.782       1.532       1.265       1.048      0.9050      0.7667      0.5138      0.2526      0.1098       0.000    
  47    10.00       9.889       9.785       9.654       9.499       9.351       9.204       9.029       8.846       8.690    
        8.557       8.431       8.266       8.090       7.907       7.713       7.478       7.178       6.886       6.434    
        5.947       5.647       5.375       5.172       5.001       4.875       4.761       4.650       4.555       4.410    
        4.210       4.036       3.871       3.698       3.558       3.349       2.969       2.590       2.266       1.990    
        1.790       1.552       1.314       1.105      0.9277      0.7043      0.4234      0.2213      9.2161E-02   0.000    
  48    10.00       9.876       9.753       9.614       9.472       9.342       9.192       9.032       8.863       8.711    
        8.575       8.429       8.249       8.068       7.889       7.697       7.473       7.190       6.826       6.377    
        5.955       5.647       5.382       5.195       5.057       4.903       4.788       4.695       4.577       4.381    
        4.186       4.016       3.864       3.735       3.552       3.277       2.914       2.571       2.264       2.020    
        1.805       1.578       1.364       1.127      0.8614      0.5730      0.3623      0.2149      9.7082E-02   0.000    
  49    10.00       9.866       9.731       9.595       9.479       9.344       9.186       9.028       8.892       8.734    
        8.572       8.389       8.212       8.061       7.856       7.670       7.483       7.167       6.807       6.449    
        6.004       5.660       5.397       5.234       5.072       4.906       4.817       4.729       4.542       4.306    
        4.138       4.002       3.891       3.725       3.512       3.266       2.901       2.559       2.319       2.059    
        1.805       1.597       1.368       1.089      0.7634      0.5113      0.3626      0.2340      0.1200       0.000    
  50    10.00       9.871       9.736       9.597       9.471       9.338       9.198       9.043       8.899       8.759    
        8.560       8.369       8.207       8.004       7.796       7.653       7.476       7.231       6.875       6.520    
        6.067       5.634       5.405       5.240       5.071       4.936       4.829       4.712       4.491       4.267    
        4.127       4.015       3.886       3.713       3.516       3.280       2.912       2.561       2.327       2.093    
        1.851       1.589       1.332       1.033      0.7118      0.5233      0.3902      0.2645      0.1595       0.000    

 HEAD WILL BE SAVED ON UNIT   51 AT END OF TIME STEP  72, STRESS PERIOD    2

 DRAWDOWN WILL BE SAVED ON UNIT   52 AT END OF TIME STEP  72, STRESS PERIOD    2
1
  VOLUMETRIC BUDGET FOR ENTIRE MODEL AT END OF TIME STEP 72 IN STRESS PERIOD   2
  ------------------------------------------------------------------------------

     CUMULATIVE VOLUMES      L**3       RATES FOR THIS TIME STEP      L**3/T
     ------------------                 ------------------------

           IN:                                      IN:
           ---                                      ---
             STORAGE =       35087.7227               STORAGE =         455.7180
       CONSTANT HEAD =       27999.4902         CONSTANT HEAD =         410.1287
               WELLS =           0.0000                 WELLS =           0.0000

            TOTAL IN =       63087.2109              TOTAL IN =         865.8467

          OUT:                                     OUT:
          ----                                     ----
             STORAGE =       1.1143E-02               STORAGE =           0.0000
       CONSTANT HEAD =       27087.1992         CONSTANT HEAD =         365.8469
               WELLS =       36000.0000                 WELLS =         500.0000

           TOTAL OUT =       63087.2109             TOTAL OUT =         865.8469

            IN - OUT =           0.0000              IN - OUT =      -1.8311E-04

 PERCENT DISCREPANCY =           0.00     PERCENT DISCREPANCY =           0.00






          TIME SUMMARY AT END OF TIME STEP  72 IN STRESS PERIOD    2
                    SECONDS     MINUTES      HOURS       DAYS        YEARS
                    -----------------------------------------------------------
   TIME STEP LENGTH  86400.      1440.0      24.000      1.0000     2.73785E-03
 STRESS PERIOD TIME 6.22080E+06 1.03680E+05  1728.0      72.000     0.19713    
         TOTAL TIME 6.30720E+06 1.05120E+05  1752.0      73.000     0.19986    
1
 
 SOLVING FOR HEAD 

 OUTPUT CONTROL FOR STRESS PERIOD    2   TIME STEP  73
    SAVE HEAD FOR ALL LAYERS
    SAVE DRAWDOWN FOR ALL LAYERS
    SAVE BUDGET
    PRINT HEAD FOR ALL LAYERS
    PRINT BUDGET
 UBDSV1 SAVING "         STORAGE" ON UNIT  53 AT TIME STEP 73, STRESS PERIOD   2
 UBDSV2 SAVING "   CONSTANT HEAD" ON UNIT  53 AT TIME STEP 73, STRESS PERIOD   2
 UBDSV1 SAVING "FLOW RIGHT FACE " ON UNIT  53 AT TIME STEP 73, STRESS PERIOD   2
 UBDSV1 SAVING "FLOW FRONT FACE " ON UNIT  53 AT TIME STEP 73, STRESS PERIOD   2
1
              HEAD IN LAYER   1 AT END OF TIME STEP  73 IN STRESS PERIOD    2
  ---------------------------------------------------------------------------

            1           2           3           4           5           6           7           8           9          10
           11          12          13          14          15          16          17          18          19          20
           21          22          23          24          25          26          27          28          29          30
           31          32          33          34          35          36          37          38          39          40
           41          42          43          44          45          46          47          48          49          50
 ........................................................................................................................
   1    10.00       9.951       9.901       9.844       9.798       9.759       9.708       9.637       9.559       9.488    
        9.331       9.134       8.989       8.827       8.654       8.480       8.319       8.133       7.886       7.639    
        7.470       7.278       7.025       6.769       6.539       6.340       6.057       5.799       5.617       5.426    
        5.263       5.159       5.047       4.921       4.800       4.650       4.489       4.271       4.021       3.747    
        3.393       3.031       2.555       2.034       1.642       1.358       1.147      0.9045      0.5311       0.000    
   2    10.00       9.945       9.893       9.844       9.805       9.768       9.711       9.638       9.567       9.471    
        9.317       9.141       8.977       8.829       8.670       8.490       8.298       8.107       7.876       7.627    
        7.444       7.286       7.016       6.738       6.534       6.309       6.035       5.789       5.579       5.399    
        5.262       5.167       5.073       4.938       4.796       4.648       4.462       4.259       4.016       3.704    
        3.372       3.065       2.566       2.049       1.701       1.449       1.205      0.9342      0.5641       0.000    
   3    10.00       9.937       9.893       9.858       9.821       9.783       9.721       9.635       9.548       9.444    
        9.304       9.148       8.990       8.841       8.651       8.425       8.237       8.072       7.859       7.641    
        7.453       7.227       6.960       6.715       6.493       6.241       5.977       5.733       5.518       5.385    
        5.274       5.183       5.089       4.941       4.792       4.633       4.449       4.222       3.951       3.711    
        3.419       3.000       2.513       2.142       1.847       1.554       1.255      0.9469      0.5348       0.000    
   4    10.00       9.937       9.898       9.867       9.841       9.800       9.729       9.630       9.527       9.423    
        9.289       9.149       8.991       8.803       8.569       8.359       8.225       8.039       7.833       7.662    
        7.404       7.116       6.881       6.663       6.448       6.145       5.853       5.658       5.513       5.400    
        5.301       5.206       5.103       4.931       4.747       4.602       4.408       4.172       3.942       3.733    
        3.401       2.939       2.572       2.261       1.944       1.612       1.251      0.8911      0.4569       0.000    
   5    10.00       9.942       9.906       9.875       9.852       9.810       9.735       9.621       9.506       9.402    
        9.288       9.143       8.940       8.720       8.521       8.356       8.188       8.013       7.821       7.579    
        7.277       7.040       6.845       6.624       6.347       6.032       5.793       5.655       5.537       5.422    
        5.308       5.191       5.073       4.906       4.718       4.544       4.370       4.185       3.977       3.702    
        3.325       2.974       2.661       2.347       2.002       1.616       1.163      0.7500      0.3885       0.000    
   6    10.00       9.951       9.916       9.886       9.855       9.808       9.728       9.605       9.504       9.392    
        9.265       9.084       8.861       8.678       8.495       8.305       8.133       7.977       7.761       7.485    
        7.217       6.991       6.790       6.516       6.216       5.979       5.786       5.658       5.525       5.405    
        5.305       5.177       5.030       4.857       4.674       4.525       4.375       4.208       3.989       3.693    
        3.365       3.027       2.707       2.391       2.016       1.549       1.062      0.7048      0.3630       0.000    
   7    10.00       9.958       9.927       9.896       9.861       9.805       9.697       9.579       9.475       9.335    
        9.204       9.011       8.808       8.619       8.430       8.236       8.068       7.924       7.675       7.381    
        7.138       6.907       6.683       6.418       6.163       5.948       5.779       5.623       5.480       5.389    
        5.286       5.144       4.988       4.816       4.660       4.528       4.388       4.218       3.995       3.727    
        3.402       3.054       2.724       2.375       2.005       1.515       1.015      0.6708      0.3176       0.000    
   8    10.00       9.965       9.937       9.903       9.863       9.772       9.640       9.528       9.397       9.264    
        9.118       8.920       8.747       8.553       8.341       8.151       8.005       7.833       7.595       7.310    
        7.028       6.816       6.630       6.356       6.090       5.898       5.707       5.537       5.442       5.353    
        5.228       5.087       4.956       4.807       4.646       4.511       4.405       4.277       4.060       3.753    
        3.398       3.090       2.782       2.376       1.965       1.417      0.9399      0.6568      0.3040       0.000    
   9    10.00       9.972       9.941       9.902       9.835       9.714       9.574       9.441       9.326       9.189    
        9.016       8.840       8.667       8.480       8.261       8.083       7.946       7.741       7.506       7.213    
        6.969       6.757       6.491       6.209       5.985       5.813       5.623       5.483       5.390       5.287    
        5.175       5.048       4.925       4.795       4.658       4.531       4.427       4.313       4.090       3.758    
        3.433       3.160       2.837       2.447       1.838       1.220      0.8952      0.5552      0.2118       0.000    
  10    10.00       9.972       9.940       9.885       9.781       9.638       9.481       9.378       9.268       9.105    
        8.954       8.779       8.607       8.404       8.200       8.040       7.854       7.642       7.393       7.155    
        6.915       6.588       6.313       6.092       5.902       5.747       5.570       5.430       5.337       5.254    
        5.137       5.000       4.890       4.771       4.651       4.566       4.463       4.331       4.076       3.748    
        3.495       3.256       2.885       2.297       1.592       1.145      0.8119      0.4959      0.2475       0.000    
  11    10.00       9.972       9.929       9.844       9.726       9.565       9.427       9.340       9.209       9.070    
        8.924       8.740       8.533       8.315       8.144       7.970       7.795       7.566       7.324       7.090    
        6.744       6.429       6.211       6.013       5.829       5.656       5.488       5.380       5.304       5.221    
        5.086       4.960       4.871       4.765       4.669       4.575       4.458       4.316       4.075       3.814    
        3.549       3.238       2.834       2.186       1.527       1.076      0.7605      0.5771      0.3189       0.000    
  12    10.00       9.970       9.909       9.799       9.646       9.485       9.375       9.288       9.173       9.047    
        8.887       8.692       8.482       8.290       8.115       7.922       7.721       7.485       7.239       6.918    
        6.576       6.338       6.123       5.921       5.717       5.546       5.430       5.350       5.251       5.142    
        5.022       4.932       4.853       4.772       4.689       4.594       4.470       4.298       4.077       3.843    
        3.558       3.220       2.667       1.937       1.376       1.059      0.8439      0.6122      0.3492       0.000    
  13    10.00       9.960       9.865       9.714       9.553       9.415       9.326       9.249       9.152       9.030    
        8.860       8.656       8.464       8.310       8.106       7.869       7.633       7.378       7.102       6.789    
        6.489       6.231       5.997       5.787       5.592       5.468       5.396       5.281       5.153       5.056    
        4.981       4.911       4.841       4.774       4.695       4.612       4.501       4.306       4.081       3.804    
        3.477       3.049       2.407       1.815       1.408       1.138      0.8869      0.6137      0.3033       0.000    
  14    10.00       9.926       9.790       9.623       9.474       9.365       9.305       9.235       9.141       9.006    
        8.819       8.644       8.487       8.325       8.094       7.814       7.560       7.271       6.964       6.638    
        6.347       6.088       5.858       5.651       5.500       5.415       5.326       5.185       5.078       5.006    
        4.953       4.887       4.829       4.767       4.695       4.630       4.499       4.299       4.063       3.717    
        3.332       2.827       2.333       1.903       1.498       1.182      0.9025      0.6142      0.2737       0.000    
  15    10.00       9.862       9.710       9.561       9.441       9.358       9.291       9.224       9.131       9.005    
        8.840       8.669       8.513       8.284       8.012       7.742       7.460       7.160       6.795       6.448    
        6.178       5.928       5.713       5.556       5.443       5.354       5.243       5.112       5.025       4.974    
        4.913       4.861       4.817       4.758       4.692       4.621       4.481       4.293       3.994       3.621    
        3.223       2.771       2.372       1.929       1.588       1.251      0.9139      0.6085      0.2498       0.000    
  16    10.00       9.839       9.674       9.537       9.434       9.358       9.289       9.227       9.137       9.006    
        8.850       8.686       8.492       8.199       7.901       7.677       7.398       6.997       6.580       6.259    
        5.983       5.775       5.600       5.467       5.342       5.262       5.140       5.034       4.969       4.912    
        4.868       4.837       4.791       4.736       4.677       4.595       4.467       4.238       3.913       3.577    
        3.238       2.804       2.357       1.967       1.647       1.293      0.9116      0.5457      0.2055       0.000    
  17    10.00       9.818       9.651       9.541       9.450       9.372       9.305       9.235       9.136       9.014    
        8.867       8.660       8.393       8.078       7.827       7.614       7.272       6.820       6.399       6.090    
        5.869       5.638       5.443       5.301       5.199       5.097       4.991       4.926       4.874       4.846    
        4.832       4.802       4.756       4.702       4.640       4.552       4.401       4.201       3.941       3.591    
        3.206       2.750       2.338       1.993       1.665       1.302      0.9311      0.5687      0.2406       0.000    
  18    10.00       9.807       9.651       9.556       9.472       9.398       9.331       9.246       9.149       9.017    
        8.841       8.595       8.299       8.031       7.785       7.472       7.074       6.662       6.291       5.987    
        5.716       5.419       5.251       5.133       5.044       4.928       4.861       4.805       4.773       4.782    
        4.779       4.754       4.708       4.648       4.584       4.491       4.349       4.188       3.964       3.643    
        3.144       2.659       2.323       1.996       1.717       1.336      0.9267      0.5582      0.2406       0.000    
  19    10.00       9.815       9.685       9.587       9.499       9.423       9.344       9.265       9.176       9.023    
        8.816       8.553       8.259       7.961       7.634       7.295       6.928       6.530       6.156       5.835    
        5.519       5.262       5.129       5.038       4.911       4.808       4.751       4.701       4.693       4.698    
        4.707       4.694       4.640       4.586       4.535       4.465       4.332       4.158       3.933       3.556    
        3.056       2.644       2.310       1.989       1.676       1.283      0.8910      0.5552      0.2618       0.000    
  20    10.00       9.825       9.714       9.628       9.543       9.453       9.360       9.275       9.184       9.029    
        8.803       8.529       8.187       7.800       7.425       7.149       6.779       6.354       6.026       5.707    
        5.426       5.213       5.052       4.913       4.751       4.680       4.643       4.618       4.624       4.625    
        4.632       4.611       4.568       4.540       4.500       4.430       4.278       4.103       3.846       3.425    
        2.994       2.667       2.281       1.914       1.573       1.185      0.8939      0.5517      0.2448       0.000    
  21    10.00       9.851       9.751       9.664       9.570       9.485       9.382       9.290       9.191       9.016    
        8.771       8.436       8.008       7.555       7.208       6.957       6.610       6.300       5.993       5.648    
        5.381       5.146       4.944       4.680       4.546       4.510       4.454       4.493       4.529       4.526    
        4.523       4.498       4.495       4.483       4.453       4.359       4.212       4.062       3.689       3.250    
        2.929       2.576       2.181       1.839       1.477       1.137      0.8095      0.4860      0.2443       0.000    
  22    10.00       9.883       9.778       9.683       9.593       9.512       9.394       9.275       9.160       8.978    
        8.679       8.257       7.774       7.350       7.053       6.792       6.528       6.304       5.966       5.628    
        5.347       5.011       4.646       4.372       4.271       4.172       4.186       4.292       4.332       4.353    
        4.371       4.371       4.399       4.420       4.392       4.298       4.153       3.874       3.450       3.170    
        2.825       2.443       2.088       1.759       1.451       1.047      0.7026      0.4659      0.2621       0.000    
  23    10.00       9.884       9.783       9.698       9.602       9.495       9.362       9.253       9.152       8.923    
        8.556       8.102       7.663       7.293       6.989       6.768       6.520       6.226       5.903       5.633    
        5.242       4.749       4.359       4.080       3.670       3.669       3.889       4.010       4.099       4.185    
        4.225       4.259       4.299       4.334       4.311       4.218       4.007       3.688       3.344       3.000    
        2.669       2.353       2.012       1.752       1.362      0.9519      0.6833      0.4479      0.2327       0.000    
  24    10.00       9.910       9.795       9.683       9.572       9.449       9.329       9.236       9.123       8.853    
        8.434       8.006       7.642       7.320       7.029       6.738       6.436       6.169       5.912       5.596    
        5.129       4.639       4.176       3.333       2.433       2.956       3.458       3.752       3.916       4.052    
        4.126       4.175       4.223       4.238       4.213       4.091       3.857       3.597       3.221       2.856    
        2.597       2.294       1.971       1.638       1.219      0.8830      0.6569      0.4194      0.1851       0.000    
  25    10.00       9.901       9.769       9.632       9.502       9.390       9.298       9.205       9.064       8.785    
        8.346       7.947       7.668       7.366       7.029       6.728       6.445       6.211       5.973       5.565    
        5.031       4.549       3.809       2.439     -0.4179       2.336       3.130       3.594       3.838       3.981    
        4.066       4.124       4.165       4.168       4.128       3.991       3.741       3.437       3.131       2.824    
        2.530       2.202       1.833       1.482       1.084      0.8102      0.6535      0.4073      0.1510       0.000    
  26    10.00       9.876       9.706       9.552       9.447       9.357       9.266       9.151       8.986       8.641    
        8.232       7.953       7.685       7.385       7.069       6.780       6.512       6.280       5.980       5.546    
        5.076       4.544       3.895       3.154       2.473       2.831       3.303       3.629       3.829       3.959    
        4.040       4.100       4.124       4.115       4.053       3.886       3.605       3.359       3.115       2.785    
        2.481       2.109       1.687       1.309      0.9849      0.7920      0.6174      0.3624      0.1543       0.000    
  27    10.00       9.849       9.668       9.523       9.436       9.317       9.198       9.053       8.831       8.504    
        8.215       7.968       7.695       7.402       7.093       6.863       6.678       6.363       5.984       5.542    
        5.143       4.757       4.234       3.744       3.358       3.415       3.595       3.755       3.881       3.974    
        4.058       4.107       4.113       4.082       3.995       3.800       3.576       3.361       3.076       2.766    
        2.452       2.004       1.520       1.165      0.9393      0.7784      0.5865      0.3827      0.1846       0.000    
  28    10.00       9.829       9.697       9.535       9.385       9.240       9.108       8.937       8.716       8.462    
        8.224       8.003       7.733       7.406       7.130       6.944       6.738       6.392       5.953       5.563    
        5.279       4.990       4.577       4.194       3.947       3.865       3.857       3.906       3.986       4.063    
        4.116       4.128       4.117       4.064       3.947       3.770       3.589       3.334       3.037       2.725    
        2.341       1.918       1.438       1.087      0.9286      0.7748      0.6042      0.3994      0.1853       0.000    
  29    10.00       9.835       9.670       9.499       9.319       9.180       9.030       8.840       8.653       8.451    
        8.239       8.020       7.758       7.482       7.244       7.024       6.749       6.366       5.965       5.661    
        5.419       5.163       4.824       4.482       4.280       4.170       4.100       4.098       4.136       4.161    
        4.164       4.157       4.127       4.051       3.915       3.761       3.592       3.353       3.024       2.628    
        2.276       1.827       1.347       1.071      0.9313      0.7800      0.5994      0.3900      0.1940       0.000    
  30    10.00       9.811       9.644       9.439       9.257       9.129       8.969       8.802       8.657       8.476    
        8.259       8.023       7.784       7.563       7.352       7.104       6.754       6.397       6.076       5.785    
        5.576       5.323       5.013       4.716       4.472       4.375       4.310       4.285       4.261       4.239    
        4.213       4.187       4.136       4.036       3.909       3.786       3.616       3.309       2.901       2.493    
        2.134       1.720       1.355       1.100      0.9523      0.7815      0.5887      0.4086      0.2005       0.000    
  31    10.00       9.787       9.594       9.398       9.233       9.100       8.949       8.800       8.657       8.481    
        8.267       8.030       7.823       7.641       7.443       7.164       6.818       6.507       6.252       5.993    
        5.769       5.483       5.178       4.927       4.679       4.521       4.457       4.394       4.348       4.300    
        4.265       4.214       4.141       4.041       3.918       3.778       3.509       3.163       2.822       2.424    
        2.083       1.670       1.313       1.128      0.9697      0.8089      0.6082      0.4090      0.1939       0.000    
  32    10.00       9.771       9.563       9.395       9.257       9.123       8.966       8.797       8.624       8.458    
        8.248       8.042       7.859       7.658       7.475       7.239       6.969       6.734       6.472       6.203    
        5.978       5.710       5.401       5.131       4.874       4.649       4.563       4.482       4.416       4.349    
        4.298       4.248       4.149       4.022       3.905       3.710       3.375       3.048       2.746       2.381    
        1.984       1.598       1.334       1.191       1.019      0.8156      0.6034      0.3884      0.1938       0.000    
  33    10.00       9.764       9.586       9.452       9.313       9.159       8.970       8.783       8.598       8.408    
        8.233       8.061       7.880       7.689       7.485       7.302       7.105       6.904       6.689       6.427    
        6.164       5.913       5.652       5.337       5.021       4.765       4.636       4.556       4.475       4.389    
        4.327       4.255       4.148       4.024       3.851       3.582       3.236       2.958       2.665       2.239    
        1.876       1.622       1.412       1.242       1.045      0.8313      0.5714      0.3416      0.1540       0.000    
  34    10.00       9.785       9.640       9.513       9.360       9.171       8.972       8.754       8.550       8.393    
        8.235       8.078       7.915       7.718       7.539       7.361       7.191       7.031       6.825       6.559    
        6.311       6.083       5.825       5.498       5.150       4.865       4.698       4.603       4.511       4.416    
        4.333       4.255       4.147       3.992       3.781       3.448       3.109       2.856       2.507       2.129    
        1.904       1.736       1.534       1.314       1.055      0.7540      0.4618      0.2736      0.1135       0.000    
  35    10.00       9.820       9.690       9.562       9.398       9.186       8.959       8.717       8.524       8.388    
        8.283       8.125       7.945       7.736       7.545       7.419       7.294       7.130       6.918       6.664    
        6.427       6.201       5.964       5.598       5.205       4.933       4.751       4.640       4.534       4.425    
        4.340       4.247       4.120       3.919       3.592       3.243       3.016       2.750       2.391       2.163    
        2.005       1.813       1.610       1.396       1.068      0.6414      0.3548      0.2333      0.1185       0.000    
  36    10.00       9.842       9.729       9.606       9.433       9.182       8.905       8.678       8.539       8.434    
        8.291       8.113       7.947       7.763       7.595       7.470       7.351       7.207       7.039       6.805    
        6.559       6.320       6.028       5.637       5.249       4.973       4.800       4.670       4.539       4.427    
        4.333       4.214       4.013       3.713       3.414       3.171       2.956       2.677       2.389       2.236    
        2.075       1.903       1.698       1.422      0.9746      0.5405      0.3335      0.2135      0.1097       0.000    
  37    10.00       9.859       9.771       9.640       9.409       9.135       8.891       8.714       8.599       8.473    
        8.290       8.099       7.957       7.797       7.642       7.522       7.414       7.280       7.103       6.901    
        6.700       6.440       6.077       5.707       5.341       5.029       4.821       4.659       4.541       4.419    
        4.299       4.125       3.827       3.552       3.338       3.129       2.905       2.684       2.476       2.305    
        2.150       1.957       1.724       1.361      0.8944      0.5219      0.3128      0.1988      9.9716E-02   0.000    
  38    10.00       9.880       9.775       9.631       9.393       9.110       8.904       8.773       8.654       8.507    
        8.313       8.113       7.973       7.827       7.672       7.553       7.460       7.344       7.171       6.996    
        6.811       6.516       6.106       5.708       5.350       5.046       4.821       4.642       4.523       4.410    
        4.243       3.959       3.692       3.516       3.303       3.093       2.931       2.743       2.552       2.387    
        2.204       1.941       1.645       1.251      0.7872      0.5010      0.3525      0.2196      9.8575E-02   0.000    
  39    10.00       9.879       9.760       9.610       9.380       9.125       8.939       8.822       8.677       8.516    
        8.359       8.157       7.996       7.859       7.710       7.584       7.479       7.366       7.228       7.069    
        6.858       6.546       6.126       5.681       5.313       5.032       4.778       4.595       4.499       4.393    
        4.142       3.841       3.670       3.468       3.269       3.118       2.982       2.810       2.624       2.469    
        2.204       1.831       1.482       1.055      0.7034      0.5432      0.4045      0.2634      0.1355       0.000    
  40    10.00       9.870       9.766       9.613       9.402       9.188       9.007       8.854       8.683       8.535    
        8.417       8.222       8.020       7.881       7.743       7.602       7.486       7.397       7.277       7.092    
        6.852       6.496       6.070       5.653       5.275       4.984       4.701       4.556       4.471       4.329    
        4.102       3.871       3.638       3.427       3.285       3.153       3.023       2.862       2.691       2.487    
        2.129       1.721       1.342      0.9964      0.7551      0.5900      0.4518      0.3189      0.1566       0.000    
  41    10.00       9.888       9.805       9.657       9.440       9.218       9.046       8.910       8.742       8.565    
        8.426       8.250       8.065       7.933       7.774       7.605       7.504       7.410       7.258       7.058    
        6.812       6.467       6.042       5.634       5.258       4.870       4.606       4.526       4.435       4.328    
        4.145       3.868       3.632       3.464       3.321       3.203       3.059       2.905       2.727       2.411    
        1.990       1.593       1.262       1.007      0.7981      0.6448      0.4969      0.3511      0.1849       0.000    
  42    10.00       9.916       9.825       9.683       9.497       9.287       9.093       8.952       8.802       8.609    
        8.432       8.264       8.108       7.982       7.815       7.635       7.515       7.388       7.223       6.998    
        6.719       6.343       5.973       5.570       5.081       4.734       4.592       4.528       4.450       4.333    
        4.120       3.877       3.655       3.484       3.368       3.242       3.114       2.947       2.665       2.246    
        1.877       1.580       1.292       1.003      0.8091      0.6787      0.5368      0.3659      0.2031       0.000    
  43    10.00       9.934       9.837       9.692       9.510       9.335       9.164       9.007       8.823       8.626    
        8.463       8.294       8.140       8.023       7.869       7.669       7.510       7.366       7.141       6.854    
        6.580       6.219       5.875       5.417       4.955       4.724       4.611       4.538       4.462       4.340    
        4.137       3.914       3.700       3.532       3.420       3.295       3.128       2.890       2.478       2.106    
        1.875       1.611       1.308       1.008      0.8019      0.6812      0.5717      0.3961      0.1856       0.000    
  44    10.00       9.927       9.845       9.695       9.530       9.404       9.233       9.022       8.815       8.651    
        8.490       8.322       8.186       8.065       7.887       7.675       7.495       7.322       7.057       6.766    
        6.438       6.076       5.712       5.253       4.905       4.732       4.637       4.571       4.488       4.335    
        4.127       3.948       3.759       3.602       3.488       3.319       3.098       2.756       2.335       2.087    
        1.876       1.600       1.298       1.023      0.8130      0.6839      0.5726      0.3883      0.1711       0.000    
  45    10.00       9.913       9.814       9.694       9.574       9.415       9.237       9.037       8.831       8.668    
        8.502       8.351       8.232       8.095       7.902       7.677       7.473       7.277       6.990       6.648    
        6.269       5.884       5.491       5.152       4.910       4.764       4.670       4.602       4.499       4.373    
        4.192       3.988       3.820       3.659       3.498       3.319       3.076       2.711       2.345       2.055    
        1.813       1.553       1.270       1.023      0.8395      0.7321      0.5656      0.3368      0.1535       0.000    
  46    10.00       9.895       9.793       9.697       9.563       9.382       9.210       9.048       8.847       8.672    
        8.526       8.385       8.266       8.104       7.899       7.699       7.483       7.226       6.914       6.542    
        6.095       5.712       5.397       5.138       4.954       4.825       4.710       4.618       4.537       4.396    
        4.205       4.029       3.865       3.682       3.522       3.348       3.075       2.654       2.268       2.009    
        1.781       1.531       1.264       1.047      0.9045      0.7663      0.5136      0.2525      0.1098       0.000    
  47    10.00       9.889       9.785       9.654       9.498       9.351       9.203       9.028       8.845       8.689    
        8.555       8.430       8.264       8.089       7.905       7.711       7.476       7.176       6.883       6.432    
        5.945       5.644       5.372       5.169       4.998       4.872       4.758       4.647       4.552       4.407    
        4.207       4.034       3.869       3.695       3.556       3.347       2.967       2.588       2.265       1.989    
        1.789       1.552       1.314       1.104      0.9273      0.7040      0.4232      0.2212      9.2121E-02   0.000    
  48    10.00       9.876       9.752       9.613       9.472       9.341       9.192       9.031       8.862       8.709    
        8.573       8.427       8.247       8.066       7.887       7.695       7.471       7.188       6.824       6.375    
        5.953       5.644       5.379       5.193       5.054       4.900       4.785       4.692       4.574       4.379    
        4.183       4.014       3.862       3.733       3.550       3.275       2.912       2.570       2.263       2.020    
        1.804       1.578       1.363       1.126      0.8610      0.5728      0.3622      0.2148      9.7046E-02   0.000    
  49    10.00       9.866       9.731       9.594       9.479       9.343       9.185       9.027       8.891       8.733    
        8.570       8.387       8.210       8.059       7.854       7.668       7.481       7.166       6.805       6.447    
        6.002       5.658       5.394       5.231       5.069       4.903       4.814       4.726       4.540       4.304    
        4.135       4.000       3.889       3.723       3.510       3.264       2.900       2.558       2.318       2.058    
        1.804       1.596       1.367       1.088      0.7631      0.5111      0.3624      0.2339      0.1200       0.000    
  50    10.00       9.871       9.736       9.597       9.471       9.338       9.197       9.042       8.898       8.757    
        8.558       8.367       8.205       8.002       7.794       7.652       7.474       7.230       6.873       6.519    
        6.065       5.632       5.403       5.237       5.068       4.934       4.827       4.709       4.489       4.264    
        4.125       4.013       3.884       3.711       3.514       3.279       2.911       2.560       2.326       2.093    
        1.851       1.589       1.331       1.032      0.7116      0.5231      0.3900      0.2644      0.1594       0.000    

 HEAD WILL BE SAVED ON UNIT   51 AT END OF TIME STEP  73, STRESS PERIOD    2

 DRAWDOWN WILL BE SAVED ON UNIT   52 AT END OF TIME STEP  73, STRESS PERIOD    2
1
  VOLUMETRIC BUDGET FOR ENTIRE MODEL AT END OF TIME STEP 73 IN STRESS PERIOD   2
  ------------------------------------------------------------------------------

     CUMULATIVE VOLUMES      L**3       RATES FOR THIS TIME STEP      L**3/T
     ------------------                 ------------------------

           IN:                                      IN:
           ---                                      ---
             STORAGE =       35542.1133               STORAGE =         454.3890
       CONSTANT HEAD =       28410.6445         CONSTANT HEAD =         411.1534
               WELLS =           0.0000                 WELLS =           0.0000

            TOTAL IN =       63952.7578              TOTAL IN =         865.5424

          OUT:                                     OUT:
          ----                                     ----
             STORAGE =       1.1143E-02               STORAGE =           0.0000
       CONSTANT HEAD =       27452.7402         CONSTANT HEAD =         365.5417
               WELLS =       36500.0000                 WELLS =         500.0000

           TOTAL OUT =       63952.7500             TOTAL OUT =         865.5417

            IN - OUT =       7.8125E-03              IN - OUT =       6.7139E-04

 PERCENT DISCREPANCY =           0.00     PERCENT DISCREPANCY =           0.00






          TIME SUMMARY AT END OF TIME STEP  73 IN STRESS PERIOD    2
                    SECONDS     MINUTES      HOURS       DAYS        YEARS
                    -----------------------------------------------------------
   TIME STEP LENGTH  86400.      1440.0      24.000      1.0000     2.73785E-03
 STRESS PERIOD TIME 6.30720E+06 1.05120E+05  1752.0      73.000     0.19986    
         TOTAL TIME 6.39360E+06 1.06560E+05  1776.0      74.000     0.20260    
1
 
 SOLVING FOR HEAD 

 OUTPUT CONTROL FOR STRESS PERIOD    2   TIME STEP  74
    SAVE HEAD FOR ALL LAYERS
    SAVE DRAWDOWN FOR ALL LAYERS
    SAVE BUDGET
    PRINT HEAD FOR ALL LAYERS
    PRINT BUDGET
 UBDSV1 SAVING "         STORAGE" ON UNIT  53 AT TIME STEP 74, STRESS PERIOD   2
 UBDSV2 SAVING "   CONSTANT HEAD" ON UNIT  53 AT TIME STEP 74, STRESS PERIOD   2
 UBDSV1 SAVING "FLOW RIGHT FACE " ON UNIT  53 AT TIME STEP 74, STRESS PERIOD   2
 UBDSV1 SAVING "FLOW FRONT FACE " ON UNIT  53 AT TIME STEP 74, STRESS PERIOD   2
1
              HEAD IN LAYER   1 AT END OF TIME STEP  74 IN STRESS PERIOD    2
  ---------------------------------------------------------------------------

            1           2           3           4           5           6           7           8           9          10
           11          12          13          14          15          16          17          18          19          20
           21          22          23          24          25          26          27          28          29          30
           31          32          33          34          35          36          37          38          39          40
           41          42          43          44          45          46          47          48          49          50
 ........................................................................................................................
   1    10.00       9.951       9.901       9.843       9.797       9.759       9.707       9.636       9.559       9.487    
        9.330       9.133       8.987       8.825       8.652       8.478       8.316       8.130       7.882       7.635    
        7.467       7.274       7.021       6.764       6.535       6.336       6.052       5.794       5.611       5.421    
        5.258       5.153       5.042       4.916       4.795       4.646       4.485       4.267       4.017       3.743    
        3.390       3.029       2.553       2.033       1.640       1.357       1.146      0.9038      0.5307       0.000    
   2    10.00       9.945       9.893       9.843       9.805       9.767       9.710       9.637       9.566       9.470    
        9.316       9.139       8.975       8.828       8.668       8.488       8.296       8.104       7.873       7.624    
        7.440       7.282       7.012       6.733       6.530       6.304       6.030       5.784       5.574       5.394    
        5.257       5.161       5.067       4.933       4.791       4.643       4.458       4.254       4.013       3.700    
        3.369       3.062       2.564       2.047       1.699       1.448       1.204      0.9335      0.5637       0.000    
   3    10.00       9.936       9.892       9.858       9.821       9.782       9.721       9.634       9.548       9.443    
        9.303       9.146       8.988       8.839       8.649       8.422       8.234       8.069       7.856       7.637    
        7.449       7.223       6.955       6.710       6.488       6.235       5.971       5.728       5.512       5.379    
        5.269       5.178       5.084       4.936       4.787       4.628       4.445       4.218       3.947       3.708    
        3.416       2.998       2.511       2.141       1.845       1.553       1.254      0.9462      0.5344       0.000    
   4    10.00       9.936       9.897       9.867       9.841       9.800       9.729       9.629       9.526       9.421    
        9.288       9.147       8.989       8.801       8.566       8.356       8.222       8.036       7.829       7.659    
        7.400       7.112       6.876       6.658       6.443       6.140       5.847       5.652       5.507       5.395    
        5.296       5.200       5.098       4.925       4.741       4.597       4.403       4.168       3.938       3.729    
        3.397       2.936       2.570       2.259       1.942       1.611       1.250      0.8905      0.4565       0.000    
   5    10.00       9.942       9.906       9.875       9.852       9.810       9.734       9.620       9.505       9.400    
        9.287       9.142       8.938       8.717       8.519       8.353       8.184       8.010       7.817       7.575    
        7.273       7.035       6.840       6.619       6.341       6.026       5.787       5.649       5.531       5.416    
        5.302       5.186       5.068       4.900       4.713       4.538       4.365       4.180       3.972       3.698    
        3.322       2.971       2.659       2.345       2.000       1.614       1.162      0.7494      0.3882       0.000    
   6    10.00       9.951       9.916       9.886       9.855       9.808       9.727       9.604       9.504       9.391    
        9.263       9.083       8.859       8.675       8.492       8.302       8.129       7.973       7.757       7.481    
        7.213       6.986       6.785       6.511       6.210       5.973       5.780       5.652       5.518       5.399    
        5.299       5.171       5.024       4.851       4.668       4.520       4.370       4.203       3.985       3.689    
        3.361       3.024       2.705       2.389       2.014       1.548       1.061      0.7042      0.3627       0.000    
   7    10.00       9.958       9.927       9.896       9.861       9.805       9.697       9.578       9.474       9.333    
        9.202       9.009       8.805       8.616       8.427       8.233       8.065       7.920       7.671       7.376    
        7.133       6.902       6.678       6.412       6.157       5.941       5.773       5.617       5.473       5.383    
        5.280       5.138       4.982       4.810       4.654       4.522       4.383       4.213       3.990       3.723    
        3.398       3.051       2.721       2.372       2.003       1.514       1.014      0.6703      0.3173       0.000    
   8    10.00       9.965       9.937       9.903       9.863       9.772       9.640       9.527       9.395       9.262    
        9.116       8.918       8.744       8.550       8.338       8.147       8.001       7.829       7.590       7.305    
        7.022       6.810       6.624       6.350       6.083       5.891       5.700       5.530       5.435       5.346    
        5.221       5.080       4.949       4.800       4.640       4.505       4.399       4.271       4.055       3.749    
        3.394       3.087       2.779       2.374       1.963       1.416      0.9391      0.6562      0.3038       0.000    
   9    10.00       9.972       9.941       9.902       9.835       9.714       9.573       9.440       9.325       9.187    
        9.014       8.837       8.664       8.477       8.257       8.079       7.941       7.736       7.501       7.207    
        6.963       6.751       6.485       6.202       5.977       5.806       5.615       5.476       5.382       5.280    
        5.167       5.041       4.918       4.787       4.651       4.525       4.421       4.307       4.085       3.754    
        3.428       3.156       2.834       2.444       1.836       1.219      0.8944      0.5547      0.2116       0.000    
  10    10.00       9.972       9.939       9.885       9.781       9.637       9.480       9.376       9.267       9.103    
        8.952       8.777       8.603       8.400       8.196       8.035       7.849       7.636       7.387       7.149    
        6.909       6.581       6.306       6.084       5.894       5.739       5.562       5.422       5.329       5.246    
        5.129       4.993       4.883       4.764       4.644       4.559       4.457       4.325       4.070       3.743    
        3.490       3.252       2.882       2.295       1.591       1.144      0.8112      0.4955      0.2472       0.000    
  11    10.00       9.972       9.929       9.843       9.726       9.564       9.425       9.338       9.207       9.067    
        8.922       8.737       8.529       8.311       8.139       7.965       7.790       7.561       7.318       7.084    
        6.737       6.421       6.203       6.005       5.821       5.648       5.480       5.371       5.295       5.213    
        5.078       4.952       4.863       4.757       4.662       4.568       4.451       4.309       4.069       3.809    
        3.544       3.234       2.831       2.183       1.525       1.075      0.7597      0.5766      0.3186       0.000    
  12    10.00       9.970       9.909       9.799       9.645       9.484       9.373       9.286       9.171       9.045    
        8.884       8.688       8.478       8.286       8.110       7.917       7.715       7.479       7.232       6.911    
        6.568       6.330       6.115       5.912       5.709       5.537       5.421       5.341       5.243       5.134    
        5.014       4.923       4.845       4.764       4.681       4.586       4.463       4.292       4.071       3.837    
        3.553       3.216       2.664       1.935       1.375       1.058      0.8431      0.6116      0.3488       0.000    
  13    10.00       9.960       9.864       9.713       9.552       9.413       9.324       9.247       9.149       9.027    
        8.857       8.652       8.460       8.305       8.102       7.864       7.628       7.372       7.095       6.781    
        6.481       6.222       5.989       5.778       5.582       5.459       5.387       5.271       5.144       5.047    
        4.972       4.902       4.833       4.766       4.687       4.604       4.494       4.299       4.075       3.799    
        3.472       3.045       2.404       1.813       1.407       1.137      0.8860      0.6131      0.3030       0.000    
  14    10.00       9.926       9.789       9.622       9.473       9.363       9.303       9.232       9.138       9.004    
        8.816       8.640       8.483       8.321       8.089       7.808       7.554       7.264       6.957       6.630    
        6.338       6.079       5.849       5.642       5.490       5.406       5.317       5.175       5.068       4.996    
        4.944       4.878       4.820       4.758       4.687       4.622       4.492       4.292       4.056       3.711    
        3.327       2.823       2.330       1.900       1.496       1.180      0.9016      0.6136      0.2734       0.000    
  15    10.00       9.862       9.709       9.560       9.440       9.356       9.289       9.222       9.128       9.002    
        8.836       8.665       8.509       8.279       8.006       7.736       7.453       7.153       6.787       6.439    
        6.169       5.919       5.703       5.546       5.433       5.344       5.233       5.102       5.015       4.965    
        4.904       4.851       4.808       4.749       4.683       4.613       4.473       4.285       3.987       3.615    
        3.218       2.767       2.369       1.926       1.586       1.250      0.9129      0.6079      0.2495       0.000    
  16    10.00       9.839       9.673       9.536       9.433       9.356       9.287       9.225       9.134       9.003    
        8.847       8.682       8.487       8.194       7.895       7.670       7.391       6.989       6.572       6.250    
        5.973       5.766       5.590       5.457       5.332       5.252       5.130       5.024       4.959       4.902    
        4.858       4.827       4.782       4.727       4.668       4.586       4.459       4.230       3.906       3.571    
        3.233       2.800       2.354       1.965       1.645       1.291      0.9107      0.5451      0.2053       0.000    
  17    10.00       9.817       9.650       9.540       9.448       9.370       9.302       9.233       9.133       9.011    
        8.864       8.656       8.389       8.072       7.820       7.607       7.264       6.811       6.389       6.080    
        5.859       5.628       5.433       5.290       5.188       5.086       4.981       4.916       4.864       4.835    
        4.822       4.792       4.746       4.693       4.631       4.543       4.392       4.193       3.934       3.585    
        3.201       2.746       2.334       1.991       1.663       1.301      0.9302      0.5682      0.2403       0.000    
  18    10.00       9.806       9.650       9.554       9.471       9.396       9.329       9.244       9.146       9.014    
        8.838       8.591       8.294       8.025       7.778       7.464       7.066       6.653       6.281       5.977    
        5.705       5.408       5.241       5.122       5.034       4.917       4.850       4.794       4.762       4.771    
        4.769       4.743       4.698       4.638       4.575       4.482       4.340       4.180       3.956       3.636    
        3.139       2.655       2.320       1.993       1.715       1.335      0.9258      0.5577      0.2404       0.000    
  19    10.00       9.815       9.684       9.586       9.497       9.421       9.342       9.263       9.173       9.020    
        8.812       8.548       8.253       7.955       7.627       7.287       6.919       6.521       6.146       5.824    
        5.508       5.251       5.118       5.027       4.900       4.797       4.740       4.690       4.682       4.687    
        4.696       4.684       4.629       4.576       4.526       4.455       4.323       4.150       3.925       3.550    
        3.051       2.641       2.307       1.986       1.674       1.281      0.8901      0.5547      0.2616       0.000    
  20    10.00       9.825       9.713       9.627       9.541       9.451       9.358       9.273       9.182       9.026    
        8.800       8.525       8.182       7.793       7.418       7.140       6.770       6.344       6.016       5.696    
        5.415       5.202       5.041       4.902       4.740       4.668       4.632       4.607       4.612       4.614    
        4.621       4.600       4.558       4.529       4.490       4.420       4.269       4.095       3.839       3.419    
        2.989       2.663       2.278       1.912       1.571       1.184      0.8931      0.5512      0.2446       0.000    
  21    10.00       9.850       9.750       9.663       9.569       9.483       9.380       9.287       9.188       9.013    
        8.768       8.431       8.002       7.548       7.200       6.948       6.601       6.290       5.982       5.637    
        5.370       5.135       4.932       4.669       4.535       4.498       4.442       4.482       4.517       4.515    
        4.512       4.486       4.484       4.472       4.443       4.349       4.203       4.053       3.681       3.245    
        2.925       2.572       2.178       1.837       1.476       1.136      0.8088      0.4856      0.2441       0.000    
  22    10.00       9.882       9.777       9.682       9.591       9.510       9.393       9.272       9.157       8.975    
        8.675       8.251       7.767       7.342       7.044       6.783       6.519       6.294       5.956       5.617    
        5.336       4.999       4.635       4.360       4.259       4.160       4.174       4.280       4.320       4.341    
        4.359       4.359       4.387       4.408       4.382       4.287       4.144       3.866       3.443       3.164    
        2.820       2.440       2.085       1.757       1.449       1.046      0.7019      0.4655      0.2618       0.000    
  23    10.00       9.884       9.782       9.697       9.601       9.493       9.360       9.251       9.149       8.920    
        8.551       8.096       7.655       7.285       6.980       6.758       6.510       6.216       5.892       5.622    
        5.231       4.737       4.347       4.068       3.658       3.657       3.877       3.998       4.086       4.173    
        4.212       4.247       4.287       4.322       4.299       4.207       3.997       3.680       3.338       2.995    
        2.665       2.350       2.009       1.750       1.360      0.9510      0.6826      0.4475      0.2325       0.000    
  24    10.00       9.909       9.794       9.682       9.571       9.447       9.327       9.234       9.120       8.849    
        8.429       8.000       7.635       7.311       7.020       6.729       6.426       6.159       5.902       5.585    
        5.118       4.628       4.164       3.320       2.421       2.944       3.446       3.739       3.904       4.040    
        4.114       4.162       4.211       4.226       4.201       4.080       3.847       3.589       3.214       2.850    
        2.593       2.290       1.968       1.636       1.218      0.8821      0.6563      0.4190      0.1850       0.000    
  25    10.00       9.901       9.768       9.630       9.500       9.388       9.296       9.202       9.061       8.781    
        8.340       7.940       7.660       7.358       7.020       6.719       6.435       6.201       5.962       5.554    
        5.019       4.537       3.796       2.426     -0.4314       2.323       3.117       3.582       3.826       3.968    
        4.054       4.111       4.152       4.155       4.116       3.980       3.732       3.429       3.124       2.818    
        2.526       2.198       1.831       1.480       1.083      0.8094      0.6529      0.4068      0.1509       0.000    
  26    10.00       9.876       9.705       9.550       9.446       9.355       9.264       9.149       8.982       8.636    
        8.227       7.947       7.678       7.376       7.060       6.770       6.502       6.269       5.969       5.535    
        5.064       4.532       3.883       3.142       2.461       2.818       3.290       3.617       3.816       3.947    
        4.028       4.087       4.112       4.103       4.041       3.875       3.596       3.351       3.108       2.779    
        2.476       2.106       1.684       1.308      0.9837      0.7912      0.6167      0.3620      0.1541       0.000    
  27    10.00       9.849       9.666       9.522       9.434       9.315       9.196       9.050       8.827       8.499    
        8.209       7.962       7.688       7.394       7.084       6.854       6.668       6.353       5.974       5.531    
        5.132       4.746       4.222       3.732       3.345       3.402       3.582       3.742       3.869       3.962    
        4.046       4.094       4.101       4.070       3.983       3.790       3.567       3.353       3.069       2.760    
        2.448       2.000       1.518       1.164      0.9382      0.7775      0.5859      0.3823      0.1844       0.000    
  28    10.00       9.829       9.696       9.533       9.383       9.238       9.105       8.934       8.712       8.457    
        8.218       7.997       7.726       7.398       7.122       6.936       6.728       6.382       5.943       5.552    
        5.268       4.978       4.565       4.182       3.935       3.852       3.845       3.893       3.974       4.050    
        4.104       4.115       4.105       4.052       3.936       3.760       3.580       3.326       3.031       2.719    
        2.336       1.915       1.436       1.085      0.9275      0.7739      0.6036      0.3990      0.1851       0.000    
  29    10.00       9.835       9.669       9.497       9.317       9.177       9.027       8.836       8.649       8.446    
        8.234       8.014       7.751       7.474       7.236       7.016       6.740       6.356       5.955       5.650    
        5.408       5.152       4.812       4.470       4.268       4.157       4.088       4.085       4.124       4.149    
        4.152       4.145       4.115       4.039       3.904       3.751       3.583       3.345       3.018       2.623    
        2.272       1.824       1.345       1.070      0.9302      0.7791      0.5988      0.3896      0.1938       0.000    
  30    10.00       9.811       9.643       9.438       9.255       9.126       8.966       8.798       8.653       8.472    
        8.254       8.017       7.777       7.556       7.344       7.096       6.745       6.388       6.066       5.774    
        5.565       5.312       5.001       4.704       4.461       4.363       4.298       4.273       4.249       4.227    
        4.201       4.176       4.125       4.025       3.899       3.776       3.607       3.301       2.895       2.489    
        2.131       1.718       1.353       1.098      0.9512      0.7806      0.5880      0.4082      0.2003       0.000    
  31    10.00       9.786       9.593       9.396       9.231       9.097       8.945       8.797       8.653       8.477    
        8.262       8.024       7.817       7.634       7.436       7.156       6.809       6.497       6.243       5.983    
        5.759       5.472       5.166       4.916       4.668       4.509       4.445       4.382       4.336       4.288    
        4.253       4.203       4.130       4.031       3.908       3.769       3.500       3.156       2.816       2.419    
        2.080       1.667       1.311       1.126      0.9686      0.8079      0.6075      0.4085      0.1937       0.000    
  32    10.00       9.770       9.562       9.393       9.254       9.121       8.962       8.794       8.620       8.454    
        8.243       8.037       7.853       7.651       7.468       7.231       6.961       6.726       6.463       6.194    
        5.968       5.700       5.390       5.120       4.863       4.637       4.552       4.470       4.405       4.337    
        4.287       4.237       4.139       4.012       3.895       3.701       3.367       3.041       2.741       2.377    
        1.981       1.596       1.333       1.190       1.018      0.8146      0.6027      0.3879      0.1936       0.000    
  33    10.00       9.763       9.585       9.450       9.311       9.156       8.967       8.779       8.593       8.404    
        8.228       8.055       7.874       7.682       7.478       7.294       7.097       6.896       6.680       6.418    
        6.154       5.903       5.642       5.327       5.010       4.754       4.625       4.545       4.464       4.379    
        4.317       4.245       4.138       4.014       3.842       3.574       3.230       2.952       2.660       2.236    
        1.874       1.620       1.411       1.241       1.044      0.8303      0.5708      0.3413      0.1538       0.000    
  34    10.00       9.784       9.638       9.512       9.358       9.169       8.969       8.751       8.546       8.388    
        8.230       8.073       7.909       7.712       7.532       7.354       7.183       7.023       6.817       6.550    
        6.302       6.073       5.815       5.487       5.139       4.854       4.687       4.593       4.501       4.405    
        4.322       4.245       4.137       3.983       3.772       3.441       3.104       2.851       2.503       2.126    
        1.902       1.734       1.532       1.313       1.054      0.7531      0.4613      0.2733      0.1133       0.000    
  35    10.00       9.820       9.689       9.561       9.397       9.184       8.956       8.714       8.520       8.384    
        8.278       8.120       7.939       7.730       7.538       7.412       7.287       7.123       6.910       6.656    
        6.418       6.192       5.954       5.588       5.195       4.923       4.740       4.630       4.524       4.415    
        4.331       4.238       4.111       3.910       3.585       3.238       3.011       2.746       2.388       2.160    
        2.002       1.811       1.608       1.394       1.066      0.6407      0.3545      0.2331      0.1183       0.000    
  36    10.00       9.841       9.728       9.605       9.431       9.179       8.902       8.674       8.534       8.429    
        8.287       8.108       7.942       7.757       7.589       7.463       7.344       7.200       7.032       6.797    
        6.550       6.311       6.019       5.627       5.240       4.964       4.790       4.660       4.530       4.417    
        4.324       4.205       4.004       3.706       3.408       3.166       2.952       2.673       2.386       2.233    
        2.073       1.901       1.696       1.420      0.9735      0.5400      0.3331      0.2133      0.1096       0.000    
  37    10.00       9.858       9.771       9.639       9.408       9.133       8.888       8.711       8.595       8.469    
        8.285       8.094       7.951       7.792       7.636       7.516       7.407       7.273       7.096       6.893    
        6.692       6.431       6.068       5.698       5.332       5.020       4.812       4.651       4.532       4.411    
        4.290       4.117       3.820       3.546       3.333       3.124       2.901       2.681       2.473       2.302    
        2.147       1.955       1.722       1.359      0.8934      0.5214      0.3125      0.1986      9.9623E-02   0.000    
  38    10.00       9.880       9.774       9.630       9.391       9.108       8.901       8.770       8.650       8.503    
        8.309       8.108       7.967       7.821       7.666       7.547       7.453       7.337       7.165       6.989    
        6.803       6.508       6.098       5.699       5.342       5.038       4.813       4.634       4.516       4.403    
        4.236       3.953       3.687       3.511       3.298       3.089       2.927       2.739       2.549       2.385    
        2.202       1.939       1.643       1.249      0.7865      0.5006      0.3522      0.2195      9.8489E-02   0.000    
  39    10.00       9.879       9.759       9.609       9.379       9.122       8.936       8.819       8.674       8.512    
        8.355       8.152       7.991       7.854       7.704       7.578       7.473       7.360       7.222       7.062    
        6.851       6.539       6.119       5.673       5.306       5.025       4.771       4.588       4.493       4.386    
        4.136       3.836       3.665       3.464       3.265       3.114       2.978       2.806       2.621       2.467    
        2.202       1.829       1.480       1.054      0.7028      0.5427      0.4041      0.2632      0.1354       0.000    
  40    10.00       9.870       9.765       9.612       9.400       9.186       9.005       8.851       8.679       8.531    
        8.413       8.217       8.016       7.876       7.738       7.596       7.480       7.391       7.271       7.085    
        6.845       6.489       6.063       5.647       5.269       4.978       4.695       4.550       4.465       4.324    
        4.097       3.866       3.634       3.423       3.281       3.150       3.020       2.859       2.688       2.485    
        2.127       1.720       1.341      0.9956      0.7545      0.5895      0.4514      0.3187      0.1565       0.000    
  41    10.00       9.888       9.804       9.656       9.439       9.216       9.044       8.907       8.739       8.562    
        8.423       8.246       8.060       7.928       7.769       7.599       7.499       7.404       7.252       7.053    
        6.806       6.462       6.036       5.628       5.252       4.865       4.602       4.521       4.430       4.324    
        4.141       3.864       3.628       3.460       3.317       3.199       3.056       2.902       2.724       2.409    
        1.989       1.591       1.261       1.006      0.7975      0.6443      0.4966      0.3509      0.1848       0.000    
  42    10.00       9.916       9.824       9.682       9.496       9.285       9.091       8.950       8.799       8.606    
        8.429       8.260       8.104       7.977       7.811       7.630       7.510       7.383       7.218       6.993    
        6.714       6.338       5.968       5.565       5.076       4.730       4.587       4.524       4.445       4.329    
        4.115       3.873       3.651       3.481       3.365       3.238       3.111       2.944       2.662       2.244    
        1.876       1.579       1.291       1.002      0.8085      0.6783      0.5364      0.3657      0.2029       0.000    
  43    10.00       9.934       9.836       9.691       9.509       9.334       9.162       9.005       8.821       8.623    
        8.460       8.291       8.137       8.020       7.865       7.664       7.506       7.361       7.136       6.850    
        6.576       6.215       5.871       5.413       4.952       4.720       4.607       4.534       4.458       4.336    
        4.133       3.910       3.697       3.528       3.417       3.292       3.125       2.888       2.476       2.104    
        1.874       1.610       1.307       1.007      0.8014      0.6808      0.5714      0.3959      0.1855       0.000    
  44    10.00       9.927       9.844       9.694       9.529       9.403       9.232       9.020       8.813       8.649    
        8.487       8.319       8.183       8.061       7.883       7.672       7.491       7.318       7.053       6.763    
        6.434       6.073       5.709       5.250       4.902       4.729       4.633       4.568       4.485       4.332    
        4.123       3.944       3.756       3.599       3.485       3.316       3.095       2.754       2.334       2.086    
        1.875       1.599       1.297       1.023      0.8125      0.6835      0.5722      0.3881      0.1710       0.000    
  45    10.00       9.913       9.813       9.693       9.573       9.414       9.236       9.036       8.830       8.666    
        8.500       8.349       8.229       8.092       7.899       7.674       7.470       7.274       6.987       6.644    
        6.266       5.881       5.488       5.149       4.907       4.760       4.667       4.598       4.495       4.369    
        4.189       3.985       3.817       3.656       3.496       3.317       3.073       2.709       2.343       2.053    
        1.812       1.552       1.269       1.023      0.8390      0.7317      0.5653      0.3366      0.1534       0.000    
  46    10.00       9.895       9.792       9.697       9.562       9.382       9.209       9.047       8.845       8.671    
        8.524       8.383       8.264       8.102       7.896       7.696       7.480       7.223       6.912       6.539    
        6.093       5.709       5.394       5.135       4.951       4.822       4.707       4.615       4.534       4.393    
        4.202       4.026       3.862       3.679       3.519       3.346       3.073       2.652       2.267       2.008    
        1.780       1.530       1.263       1.047      0.9040      0.7659      0.5133      0.2523      0.1097       0.000    
  47    10.00       9.889       9.785       9.654       9.498       9.350       9.202       9.027       8.843       8.688    
        8.554       8.428       8.262       8.087       7.903       7.708       7.474       7.174       6.881       6.429    
        5.942       5.642       5.370       5.166       4.995       4.869       4.755       4.644       4.548       4.404    
        4.204       4.031       3.866       3.693       3.553       3.345       2.965       2.587       2.264       1.988    
        1.788       1.551       1.313       1.104      0.9268      0.7036      0.4230      0.2211      9.2079E-02   0.000    
  48    10.00       9.876       9.752       9.613       9.471       9.340       9.191       9.030       8.861       8.708    
        8.572       8.425       8.246       8.065       7.885       7.693       7.469       7.186       6.822       6.372    
        5.950       5.642       5.377       5.190       5.051       4.897       4.782       4.689       4.571       4.376    
        4.180       4.011       3.859       3.731       3.548       3.273       2.911       2.569       2.262       2.019    
        1.803       1.577       1.363       1.126      0.8607      0.5726      0.3620      0.2147      9.7008E-02   0.000    
  49    10.00       9.865       9.730       9.594       9.478       9.342       9.184       9.026       8.890       8.731    
        8.569       8.386       8.209       8.057       7.852       7.666       7.480       7.164       6.803       6.445    
        6.000       5.656       5.392       5.228       5.066       4.901       4.811       4.723       4.537       4.301    
        4.133       3.997       3.887       3.720       3.508       3.262       2.899       2.557       2.317       2.057    
        1.803       1.596       1.367       1.088      0.7628      0.5109      0.3623      0.2338      0.1200       0.000    
  50    10.00       9.870       9.735       9.596       9.470       9.337       9.196       9.041       8.897       8.756    
        8.557       8.366       8.204       8.000       7.793       7.650       7.473       7.228       6.871       6.517    
        6.063       5.630       5.401       5.235       5.066       4.931       4.824       4.706       4.486       4.262    
        4.123       4.011       3.882       3.709       3.512       3.277       2.909       2.559       2.325       2.092    
        1.850       1.588       1.331       1.032      0.7113      0.5229      0.3899      0.2643      0.1594       0.000    

 HEAD WILL BE SAVED ON UNIT   51 AT END OF TIME STEP  74, STRESS PERIOD    2

 DRAWDOWN WILL BE SAVED ON UNIT   52 AT END OF TIME STEP  74, STRESS PERIOD    2
1
  VOLUMETRIC BUDGET FOR ENTIRE MODEL AT END OF TIME STEP 74 IN STRESS PERIOD   2
  ------------------------------------------------------------------------------

     CUMULATIVE VOLUMES      L**3       RATES FOR THIS TIME STEP      L**3/T
     ------------------                 ------------------------

           IN:                                      IN:
           ---                                      ---
             STORAGE =       35995.1641               STORAGE =         453.0511
       CONSTANT HEAD =       28822.8242         CONSTANT HEAD =         412.1799
               WELLS =           0.0000                 WELLS =           0.0000

            TOTAL IN =       64817.9883              TOTAL IN =         865.2310

          OUT:                                     OUT:
          ----                                     ----
             STORAGE =       1.1143E-02               STORAGE =           0.0000
       CONSTANT HEAD =       27817.9707         CONSTANT HEAD =         365.2303
               WELLS =       37000.0000                 WELLS =         500.0000

           TOTAL OUT =       64817.9805             TOTAL OUT =         865.2303

            IN - OUT =       7.8125E-03              IN - OUT =       6.7139E-04

 PERCENT DISCREPANCY =           0.00     PERCENT DISCREPANCY =           0.00






          TIME SUMMARY AT END OF TIME STEP  74 IN STRESS PERIOD    2
                    SECONDS     MINUTES      HOURS       DAYS        YEARS
                    -----------------------------------------------------------
   TIME STEP LENGTH  86400.      1440.0      24.000      1.0000     2.73785E-03
 STRESS PERIOD TIME 6.39360E+06 1.06560E+05  1776.0      74.000     0.20260    
         TOTAL TIME 6.48000E+06 1.08000E+05  1800.0      75.000     0.20534    
1
 
 SOLVING FOR HEAD 

 OUTPUT CONTROL FOR STRESS PERIOD    2   TIME STEP  75
    SAVE HEAD FOR ALL LAYERS
    SAVE DRAWDOWN FOR ALL LAYERS
    SAVE BUDGET
    PRINT HEAD FOR ALL LAYERS
    PRINT BUDGET
 UBDSV1 SAVING "         STORAGE" ON UNIT  53 AT TIME STEP 75, STRESS PERIOD   2
 UBDSV2 SAVING "   CONSTANT HEAD" ON UNIT  53 AT TIME STEP 75, STRESS PERIOD   2
 UBDSV1 SAVING "FLOW RIGHT FACE " ON UNIT  53 AT TIME STEP 75, STRESS PERIOD   2
 UBDSV1 SAVING "FLOW FRONT FACE " ON UNIT  53 AT TIME STEP 75, STRESS PERIOD   2
1
              HEAD IN LAYER   1 AT END OF TIME STEP  75 IN STRESS PERIOD    2
  ---------------------------------------------------------------------------

            1           2           3           4           5           6           7           8           9          10
           11          12          13          14          15          16          17          18          19          20
           21          22          23          24          25          26          27          28          29          30
           31          32          33          34          35          36          37          38          39          40
           41          42          43          44          45          46          47          48          49          50
 ........................................................................................................................
   1    10.00       9.950       9.901       9.843       9.797       9.758       9.707       9.636       9.558       9.486    
        9.329       9.131       8.985       8.823       8.650       8.475       8.313       8.128       7.879       7.632    
        7.463       7.270       7.017       6.760       6.530       6.331       6.047       5.788       5.606       5.416    
        5.253       5.148       5.037       4.911       4.790       4.641       4.480       4.263       4.013       3.740    
        3.387       3.026       2.551       2.031       1.639       1.356       1.145      0.9031      0.5303       0.000    
   2    10.00       9.945       9.892       9.843       9.804       9.767       9.710       9.637       9.565       9.469    
        9.314       9.138       8.974       8.826       8.666       8.485       8.293       8.101       7.870       7.620    
        7.436       7.278       7.007       6.729       6.525       6.299       6.024       5.778       5.568       5.388    
        5.251       5.156       5.062       4.928       4.786       4.638       4.453       4.250       4.009       3.697    
        3.366       3.060       2.562       2.045       1.698       1.446       1.203      0.9328      0.5633       0.000    
   3    10.00       9.936       9.892       9.858       9.821       9.782       9.720       9.634       9.547       9.442    
        9.301       9.145       8.987       8.837       8.647       8.420       8.232       8.066       7.853       7.634    
        7.446       7.219       6.951       6.705       6.483       6.230       5.966       5.722       5.506       5.374    
        5.263       5.172       5.078       4.931       4.782       4.623       4.440       4.213       3.943       3.704    
        3.412       2.995       2.509       2.139       1.844       1.552       1.253      0.9454      0.5340       0.000    
   4    10.00       9.936       9.897       9.866       9.841       9.799       9.728       9.628       9.525       9.420    
        9.287       9.146       8.987       8.799       8.564       8.354       8.219       8.032       7.826       7.655    
        7.395       7.107       6.872       6.653       6.438       6.134       5.841       5.646       5.501       5.389    
        5.290       5.195       5.092       4.920       4.736       4.592       4.398       4.163       3.933       3.725    
        3.394       2.933       2.567       2.257       1.940       1.609       1.249      0.8898      0.4562       0.000    
   5    10.00       9.942       9.905       9.875       9.852       9.809       9.734       9.620       9.504       9.399    
        9.285       9.140       8.936       8.715       8.516       8.350       8.181       8.007       7.813       7.571    
        7.269       7.030       6.835       6.614       6.336       6.021       5.781       5.643       5.525       5.410    
        5.296       5.180       5.062       4.895       4.707       4.533       4.360       4.176       3.968       3.694    
        3.318       2.968       2.656       2.343       1.999       1.613       1.161      0.7488      0.3878       0.000    
   6    10.00       9.951       9.916       9.886       9.854       9.807       9.727       9.603       9.503       9.390    
        9.262       9.081       8.857       8.673       8.489       8.299       8.126       7.970       7.753       7.477    
        7.208       6.981       6.780       6.505       6.204       5.966       5.773       5.645       5.512       5.393    
        5.292       5.165       5.018       4.846       4.663       4.514       4.365       4.198       3.980       3.685    
        3.358       3.021       2.702       2.386       2.013       1.547       1.060      0.7036      0.3624       0.000    
   7    10.00       9.958       9.927       9.895       9.861       9.804       9.696       9.577       9.472       9.332    
        9.200       9.007       8.803       8.614       8.423       8.229       8.061       7.916       7.666       7.372    
        7.128       6.896       6.672       6.406       6.151       5.935       5.766       5.610       5.467       5.376    
        5.273       5.131       4.976       4.804       4.648       4.516       4.377       4.208       3.985       3.718    
        3.394       3.048       2.718       2.370       2.001       1.512       1.013      0.6697      0.3171       0.000    
   8    10.00       9.965       9.937       9.903       9.863       9.771       9.639       9.526       9.394       9.261    
        9.114       8.915       8.741       8.547       8.335       8.143       7.997       7.824       7.586       7.300    
        7.017       6.804       6.617       6.343       6.077       5.884       5.693       5.523       5.428       5.339    
        5.214       5.073       4.943       4.794       4.634       4.499       4.393       4.265       4.050       3.744    
        3.390       3.083       2.776       2.371       1.961       1.415      0.9382      0.6557      0.3035       0.000    
   9    10.00       9.972       9.941       9.902       9.834       9.713       9.572       9.439       9.323       9.185    
        9.011       8.835       8.661       8.474       8.253       8.074       7.937       7.731       7.495       7.201    
        6.957       6.745       6.478       6.195       5.970       5.798       5.607       5.468       5.375       5.272    
        5.160       5.034       4.910       4.780       4.644       4.518       4.415       4.302       4.079       3.749    
        3.424       3.153       2.830       2.441       1.835       1.218      0.8936      0.5542      0.2114       0.000    
  10    10.00       9.972       9.939       9.884       9.780       9.636       9.478       9.375       9.265       9.101    
        8.949       8.774       8.600       8.397       8.192       8.031       7.844       7.631       7.381       7.143    
        6.902       6.574       6.298       6.076       5.886       5.731       5.554       5.414       5.321       5.239    
        5.121       4.985       4.875       4.757       4.637       4.552       4.450       4.319       4.064       3.738    
        3.486       3.248       2.879       2.293       1.589       1.143      0.8104      0.4950      0.2470       0.000    
  11    10.00       9.972       9.928       9.843       9.725       9.563       9.424       9.337       9.205       9.065    
        8.919       8.734       8.526       8.307       8.135       7.960       7.785       7.555       7.312       7.077    
        6.730       6.413       6.195       5.997       5.813       5.640       5.471       5.363       5.287       5.205    
        5.070       4.944       4.855       4.750       4.655       4.561       4.445       4.303       4.064       3.804    
        3.540       3.230       2.828       2.181       1.523       1.074      0.7590      0.5760      0.3183       0.000    
  12    10.00       9.970       9.908       9.798       9.644       9.482       9.371       9.284       9.169       9.042    
        8.882       8.685       8.475       8.281       8.106       7.912       7.710       7.473       7.226       6.904    
        6.560       6.322       6.107       5.904       5.700       5.528       5.412       5.333       5.234       5.125    
        5.005       4.915       4.837       4.756       4.673       4.579       4.456       4.285       4.065       3.832    
        3.548       3.212       2.661       1.933       1.373       1.057      0.8422      0.6110      0.3485       0.000    
  13    10.00       9.959       9.864       9.712       9.551       9.412       9.322       9.245       9.147       9.024    
        8.854       8.649       8.456       8.301       8.097       7.859       7.622       7.366       7.089       6.774    
        6.473       6.214       5.980       5.769       5.573       5.449       5.378       5.262       5.135       5.038    
        4.963       4.894       4.824       4.758       4.678       4.596       4.486       4.292       4.069       3.793    
        3.467       3.041       2.401       1.811       1.405       1.136      0.8851      0.6125      0.3027       0.000    
  14    10.00       9.926       9.789       9.621       9.471       9.361       9.301       9.230       9.136       9.001    
        8.813       8.637       8.479       8.317       8.084       7.803       7.548       7.257       6.950       6.622    
        6.330       6.070       5.840       5.632       5.481       5.396       5.307       5.166       5.059       4.987    
        4.935       4.869       4.812       4.750       4.679       4.614       4.484       4.285       4.050       3.706    
        3.322       2.819       2.327       1.898       1.494       1.179      0.9006      0.6129      0.2732       0.000    
  15    10.00       9.861       9.708       9.558       9.438       9.354       9.287       9.220       9.126       9.000    
        8.833       8.661       8.504       8.274       8.001       7.730       7.447       7.146       6.779       6.430    
        6.160       5.909       5.694       5.536       5.423       5.334       5.223       5.092       5.005       4.955    
        4.894       4.842       4.799       4.740       4.674       4.604       4.465       4.278       3.980       3.610    
        3.213       2.763       2.366       1.924       1.585       1.249      0.9120      0.6073      0.2493       0.000    
  16    10.00       9.838       9.672       9.535       9.431       9.354       9.285       9.223       9.131       9.000    
        8.843       8.678       8.483       8.189       7.889       7.664       7.384       6.982       6.563       6.241    
        5.964       5.756       5.580       5.447       5.322       5.242       5.120       5.014       4.949       4.892    
        4.849       4.818       4.772       4.718       4.659       4.578       4.450       4.222       3.899       3.565    
        3.228       2.796       2.351       1.962       1.643       1.290      0.9097      0.5446      0.2051       0.000    
  17    10.00       9.817       9.649       9.539       9.446       9.368       9.300       9.230       9.131       9.008    
        8.861       8.652       8.384       8.066       7.814       7.601       7.257       6.803       6.380       6.070    
        5.849       5.617       5.422       5.280       5.178       5.076       4.970       4.906       4.854       4.825    
        4.812       4.783       4.737       4.683       4.622       4.534       4.384       4.185       3.927       3.579    
        3.196       2.742       2.331       1.988       1.662       1.300      0.9292      0.5676      0.2401       0.000    
  18    10.00       9.806       9.648       9.553       9.469       9.394       9.327       9.241       9.144       9.011    
        8.834       8.587       8.288       8.019       7.772       7.457       7.058       6.644       6.271       5.967    
        5.695       5.398       5.230       5.112       5.023       4.906       4.839       4.784       4.751       4.761    
        4.758       4.733       4.688       4.628       4.565       4.472       4.331       4.171       3.949       3.630    
        3.134       2.652       2.317       1.991       1.713       1.333      0.9248      0.5571      0.2402       0.000    
  19    10.00       9.814       9.683       9.584       9.495       9.420       9.340       9.261       9.170       9.017    
        8.808       8.544       8.248       7.949       7.620       7.279       6.910       6.511       6.136       5.814    
        5.498       5.240       5.107       5.016       4.889       4.786       4.729       4.679       4.671       4.676    
        4.686       4.673       4.619       4.566       4.516       4.446       4.314       4.141       3.917       3.544    
        3.046       2.637       2.303       1.984       1.672       1.280      0.8893      0.5542      0.2614       0.000    
  20    10.00       9.824       9.712       9.626       9.540       9.450       9.356       9.271       9.179       9.023    
        8.796       8.520       8.176       7.786       7.410       7.132       6.761       6.334       6.005       5.686    
        5.404       5.191       5.030       4.891       4.729       4.657       4.621       4.596       4.601       4.603    
        4.610       4.589       4.547       4.519       4.480       4.411       4.260       4.086       3.831       3.412    
        2.984       2.659       2.275       1.909       1.569       1.183      0.8922      0.5507      0.2444       0.000    
  21    10.00       9.850       9.749       9.662       9.568       9.481       9.378       9.285       9.186       9.009    
        8.764       8.426       7.995       7.540       7.192       6.939       6.591       6.280       5.972       5.627    
        5.359       5.124       4.921       4.657       4.523       4.487       4.431       4.471       4.506       4.504    
        4.501       4.475       4.473       4.461       4.432       4.340       4.193       4.044       3.674       3.239    
        2.920       2.568       2.175       1.835       1.474       1.135      0.8080      0.4852      0.2439       0.000    
  22    10.00       9.882       9.776       9.681       9.590       9.509       9.391       9.270       9.154       8.972    
        8.670       8.246       7.760       7.334       7.036       6.773       6.509       6.284       5.945       5.606    
        5.325       4.988       4.623       4.349       4.248       4.148       4.162       4.268       4.308       4.329    
        4.347       4.347       4.376       4.397       4.371       4.277       4.134       3.858       3.436       3.159    
        2.816       2.436       2.083       1.755       1.447       1.045      0.7012      0.4650      0.2616       0.000    
  23    10.00       9.883       9.782       9.696       9.600       9.492       9.358       9.248       9.147       8.916    
        8.547       8.090       7.648       7.277       6.971       6.749       6.500       6.205       5.881       5.611    
        5.220       4.725       4.335       4.056       3.646       3.645       3.865       3.986       4.074       4.161    
        4.200       4.235       4.275       4.310       4.288       4.197       3.988       3.672       3.331       2.989    
        2.660       2.346       2.006       1.748       1.359      0.9500      0.6819      0.4471      0.2323       0.000    
  24    10.00       9.909       9.794       9.681       9.569       9.445       9.325       9.231       9.117       8.845    
        8.424       7.993       7.627       7.303       7.011       6.720       6.416       6.148       5.891       5.574    
        5.106       4.616       4.153       3.308       2.408       2.931       3.434       3.727       3.891       4.027    
        4.101       4.150       4.199       4.214       4.190       4.069       3.838       3.580       3.208       2.845    
        2.589       2.287       1.965       1.634       1.216      0.8812      0.6556      0.4186      0.1848       0.000    
  25    10.00       9.901       9.767       9.629       9.499       9.386       9.294       9.200       9.058       8.777    
        8.335       7.934       7.653       7.350       7.012       6.710       6.425       6.191       5.952       5.543    
        5.008       4.526       3.784       2.414     -0.4448       2.311       3.104       3.569       3.813       3.956    
        4.041       4.099       4.140       4.143       4.104       3.969       3.722       3.421       3.117       2.813    
        2.521       2.195       1.828       1.478       1.082      0.8085      0.6522      0.4064      0.1507       0.000    
  26    10.00       9.876       9.704       9.549       9.444       9.352       9.261       9.146       8.979       8.632    
        8.221       7.940       7.670       7.369       7.052       6.761       6.493       6.259       5.959       5.524    
        5.053       4.521       3.871       3.129       2.448       2.805       3.278       3.604       3.803       3.934    
        4.015       4.075       4.100       4.091       4.030       3.864       3.586       3.343       3.101       2.773    
        2.472       2.102       1.682       1.306      0.9825      0.7903      0.6161      0.3616      0.1540       0.000    
  27    10.00       9.848       9.665       9.520       9.432       9.313       9.193       9.047       8.824       8.494    
        8.204       7.955       7.681       7.387       7.076       6.845       6.659       6.343       5.964       5.521    
        5.121       4.734       4.210       3.720       3.333       3.390       3.570       3.730       3.856       3.949    
        4.033       4.082       4.088       4.058       3.972       3.780       3.558       3.345       3.062       2.755    
        2.443       1.997       1.516       1.162      0.9370      0.7766      0.5852      0.3819      0.1842       0.000    
  28    10.00       9.828       9.695       9.532       9.381       9.236       9.103       8.930       8.708       8.452    
        8.213       7.991       7.719       7.391       7.114       6.927       6.719       6.373       5.933       5.541    
        5.257       4.967       4.554       4.170       3.923       3.840       3.832       3.881       3.961       4.038    
        4.092       4.103       4.093       4.041       3.925       3.750       3.571       3.318       3.024       2.714    
        2.332       1.912       1.434       1.084      0.9263      0.7729      0.6029      0.3986      0.1849       0.000    
  29    10.00       9.834       9.667       9.496       9.315       9.174       9.024       8.833       8.645       8.442    
        8.228       8.008       7.744       7.467       7.228       7.007       6.731       6.346       5.945       5.640    
        5.397       5.141       4.801       4.458       4.256       4.145       4.075       4.073       4.112       4.137    
        4.140       4.133       4.103       4.028       3.894       3.741       3.574       3.337       3.011       2.618    
        2.268       1.821       1.343       1.068      0.9291      0.7781      0.5981      0.3891      0.1936       0.000    
  30    10.00       9.810       9.642       9.436       9.253       9.123       8.963       8.794       8.649       8.467    
        8.249       8.011       7.771       7.549       7.337       7.087       6.736       6.378       6.056       5.764    
        5.554       5.301       4.990       4.693       4.449       4.351       4.286       4.261       4.238       4.215    
        4.190       4.164       4.113       4.014       3.888       3.766       3.598       3.293       2.888       2.484    
        2.127       1.715       1.351       1.097      0.9500      0.7797      0.5873      0.4077      0.2001       0.000    
  31    10.00       9.785       9.591       9.394       9.229       9.094       8.942       8.793       8.649       8.472    
        8.257       8.018       7.810       7.627       7.428       7.148       6.801       6.488       6.233       5.973    
        5.749       5.462       5.155       4.904       4.656       4.498       4.434       4.371       4.325       4.277    
        4.242       4.192       4.119       4.020       3.897       3.759       3.492       3.149       2.811       2.415    
        2.077       1.665       1.310       1.125      0.9674      0.8070      0.6068      0.4080      0.1935       0.000    
  32    10.00       9.769       9.561       9.392       9.252       9.118       8.959       8.790       8.616       8.449    
        8.237       8.031       7.846       7.645       7.461       7.224       6.953       6.717       6.454       6.184    
        5.958       5.689       5.379       5.109       4.852       4.626       4.540       4.459       4.394       4.326    
        4.276       4.226       4.128       4.002       3.885       3.692       3.360       3.035       2.735       2.373    
        1.978       1.594       1.331       1.189       1.016      0.8137      0.6021      0.3875      0.1934       0.000    
  33    10.00       9.762       9.584       9.448       9.309       9.154       8.963       8.776       8.589       8.399    
        8.223       8.050       7.868       7.676       7.471       7.287       7.089       6.888       6.672       6.408    
        6.145       5.893       5.632       5.316       4.999       4.743       4.614       4.534       4.453       4.368    
        4.306       4.234       4.128       4.004       3.833       3.566       3.223       2.947       2.656       2.232    
        1.871       1.618       1.409       1.239       1.043      0.8294      0.5701      0.3409      0.1536       0.000    
  34    10.00       9.784       9.637       9.511       9.356       9.166       8.966       8.747       8.542       8.383    
        8.226       8.067       7.903       7.705       7.525       7.347       7.176       7.015       6.809       6.541    
        6.292       6.063       5.805       5.477       5.129       4.843       4.677       4.582       4.490       4.395    
        4.312       4.235       4.127       3.973       3.764       3.434       3.098       2.846       2.499       2.124    
        1.899       1.732       1.530       1.311       1.053      0.7523      0.4608      0.2730      0.1132       0.000    
  35    10.00       9.819       9.688       9.559       9.395       9.181       8.953       8.710       8.516       8.379    
        8.274       8.115       7.933       7.723       7.532       7.405       7.279       7.115       6.902       6.647    
        6.409       6.183       5.944       5.578       5.185       4.913       4.730       4.620       4.514       4.405    
        4.321       4.228       4.102       3.902       3.577       3.232       3.006       2.742       2.385       2.157    
        2.000       1.809       1.606       1.393       1.065      0.6400      0.3541      0.2329      0.1182       0.000    
  36    10.00       9.841       9.727       9.604       9.430       9.177       8.899       8.670       8.530       8.425    
        8.282       8.102       7.936       7.751       7.582       7.457       7.337       7.193       7.024       6.789    
        6.542       6.302       6.010       5.618       5.230       4.954       4.780       4.651       4.520       4.408    
        4.314       4.196       3.996       3.699       3.402       3.161       2.947       2.669       2.383       2.230    
        2.070       1.899       1.694       1.418      0.9725      0.5394      0.3328      0.2131      0.1095       0.000    
  37    10.00       9.858       9.770       9.638       9.406       9.130       8.885       8.707       8.591       8.465    
        8.280       8.089       7.946       7.786       7.630       7.510       7.401       7.266       7.089       6.886    
        6.684       6.423       6.060       5.689       5.322       5.011       4.803       4.642       4.524       4.402    
        4.282       4.109       3.813       3.541       3.328       3.120       2.897       2.677       2.470       2.300    
        2.145       1.952       1.720       1.358      0.8925      0.5209      0.3122      0.1984      9.9528E-02   0.000    
  38    10.00       9.879       9.774       9.629       9.390       9.106       8.898       8.766       8.646       8.499    
        8.304       8.103       7.962       7.815       7.660       7.541       7.447       7.331       7.158       6.981    
        6.796       6.501       6.090       5.691       5.333       5.030       4.805       4.626       4.508       4.395    
        4.228       3.946       3.681       3.506       3.294       3.085       2.924       2.736       2.546       2.382    
        2.199       1.937       1.641       1.248      0.7857      0.5001      0.3519      0.2193      9.8402E-02   0.000    
  39    10.00       9.878       9.759       9.608       9.377       9.120       8.933       8.816       8.670       8.508    
        8.350       8.147       7.986       7.848       7.699       7.572       7.466       7.354       7.215       7.056    
        6.844       6.532       6.111       5.666       5.298       5.018       4.764       4.582       4.486       4.380    
        4.130       3.831       3.660       3.459       3.261       3.111       2.975       2.803       2.618       2.464    
        2.200       1.827       1.479       1.053      0.7022      0.5423      0.4038      0.2630      0.1353       0.000    
  40    10.00       9.869       9.765       9.611       9.399       9.184       9.002       8.848       8.676       8.527    
        8.409       8.213       8.011       7.871       7.732       7.591       7.475       7.385       7.265       7.079    
        6.839       6.483       6.056       5.640       5.262       4.971       4.689       4.545       4.460       4.318    
        4.092       3.861       3.629       3.419       3.278       3.146       3.016       2.856       2.685       2.482    
        2.125       1.718       1.340      0.9947      0.7539      0.5891      0.4511      0.3184      0.1564       0.000    
  41    10.00       9.887       9.804       9.655       9.437       9.214       9.042       8.904       8.736       8.558    
        8.419       8.242       8.056       7.923       7.764       7.594       7.493       7.398       7.246       7.047    
        6.801       6.456       6.030       5.623       5.246       4.860       4.597       4.516       4.426       4.319    
        4.136       3.859       3.625       3.456       3.314       3.196       3.053       2.899       2.721       2.406    
        1.987       1.590       1.260       1.005      0.7969      0.6438      0.4962      0.3506      0.1847       0.000    
  42    10.00       9.916       9.824       9.682       9.495       9.283       9.089       8.948       8.797       8.603    
        8.426       8.256       8.100       7.973       7.806       7.625       7.505       7.378       7.213       6.988    
        6.709       6.333       5.963       5.560       5.072       4.725       4.583       4.520       4.441       4.325    
        4.111       3.869       3.648       3.477       3.361       3.235       3.108       2.941       2.660       2.242    
        1.874       1.577       1.290       1.002      0.8079      0.6778      0.5361      0.3654      0.2028       0.000    
  43    10.00       9.934       9.836       9.691       9.508       9.332       9.160       9.003       8.818       8.620    
        8.457       8.287       8.133       8.016       7.861       7.660       7.501       7.357       7.132       6.846    
        6.571       6.211       5.867       5.409       4.948       4.717       4.603       4.530       4.454       4.332    
        4.129       3.907       3.694       3.525       3.414       3.288       3.122       2.885       2.474       2.103    
        1.872       1.609       1.306       1.006      0.8008      0.6803      0.5710      0.3956      0.1854       0.000    
  44    10.00       9.927       9.844       9.694       9.528       9.402       9.230       9.018       8.811       8.646    
        8.484       8.316       8.180       8.058       7.880       7.668       7.487       7.314       7.049       6.759    
        6.431       6.069       5.705       5.246       4.898       4.725       4.629       4.564       4.481       4.328    
        4.120       3.941       3.753       3.596       3.482       3.313       3.092       2.752       2.332       2.084    
        1.874       1.598       1.296       1.022      0.8120      0.6831      0.5719      0.3878      0.1709       0.000    
  45    10.00       9.912       9.813       9.693       9.572       9.413       9.235       9.035       8.828       8.664    
        8.498       8.346       8.227       8.089       7.896       7.671       7.467       7.271       6.983       6.641    
        6.263       5.878       5.485       5.146       4.904       4.757       4.663       4.595       4.492       4.366    
        4.185       3.982       3.813       3.653       3.493       3.314       3.071       2.707       2.342       2.052    
        1.811       1.551       1.268       1.022      0.8386      0.7313      0.5650      0.3364      0.1534       0.000    
  46    10.00       9.895       9.792       9.696       9.562       9.381       9.208       9.046       8.844       8.669    
        8.522       8.381       8.262       8.099       7.894       7.694       7.477       7.220       6.909       6.537    
        6.090       5.706       5.391       5.132       4.948       4.819       4.704       4.612       4.530       4.390    
        4.199       4.023       3.859       3.676       3.517       3.344       3.071       2.650       2.265       2.007    
        1.779       1.529       1.263       1.046      0.9036      0.7654      0.5130      0.2522      0.1097       0.000    
  47    10.00       9.888       9.785       9.653       9.497       9.349       9.201       9.025       8.842       8.686    
        8.552       8.426       8.260       8.085       7.901       7.706       7.471       7.171       6.879       6.427    
        5.940       5.639       5.367       5.164       4.992       4.866       4.752       4.640       4.545       4.401    
        4.202       4.028       3.863       3.690       3.551       3.343       2.964       2.585       2.263       1.987    
        1.787       1.550       1.312       1.103      0.9264      0.7033      0.4229      0.2210      9.2036E-02   0.000    
  48    10.00       9.876       9.752       9.612       9.471       9.339       9.190       9.029       8.859       8.706    
        8.570       8.424       8.244       8.063       7.883       7.691       7.467       7.184       6.820       6.370    
        5.948       5.639       5.374       5.187       5.049       4.894       4.779       4.686       4.568       4.373    
        4.178       4.009       3.857       3.728       3.545       3.271       2.909       2.567       2.261       2.018    
        1.802       1.576       1.362       1.125      0.8603      0.5723      0.3619      0.2146      9.6969E-02   0.000    
  49    10.00       9.865       9.730       9.593       9.477       9.342       9.183       9.025       8.889       8.730    
        8.567       8.384       8.207       8.056       7.851       7.664       7.478       7.162       6.801       6.443    
        5.998       5.653       5.389       5.226       5.064       4.898       4.808       4.720       4.534       4.299    
        4.130       3.995       3.884       3.718       3.506       3.260       2.897       2.556       2.315       2.057    
        1.803       1.595       1.366       1.087      0.7625      0.5107      0.3622      0.2337      0.1199       0.000    
  50    10.00       9.870       9.735       9.596       9.470       9.336       9.195       9.040       8.896       8.755    
        8.556       8.364       8.202       7.999       7.791       7.648       7.471       7.226       6.869       6.515    
        6.061       5.628       5.398       5.232       5.063       4.928       4.821       4.704       4.483       4.259    
        4.120       4.008       3.879       3.707       3.510       3.275       2.908       2.558       2.324       2.091    
        1.849       1.587       1.330       1.032      0.7111      0.5227      0.3897      0.2642      0.1593       0.000    

 HEAD WILL BE SAVED ON UNIT   51 AT END OF TIME STEP  75, STRESS PERIOD    2

 DRAWDOWN WILL BE SAVED ON UNIT   52 AT END OF TIME STEP  75, STRESS PERIOD    2
1
  VOLUMETRIC BUDGET FOR ENTIRE MODEL AT END OF TIME STEP 75 IN STRESS PERIOD   2
  ------------------------------------------------------------------------------

     CUMULATIVE VOLUMES      L**3       RATES FOR THIS TIME STEP      L**3/T
     ------------------                 ------------------------

           IN:                                      IN:
           ---                                      ---
             STORAGE =       36446.8672               STORAGE =         451.7049
       CONSTANT HEAD =       29236.0312         CONSTANT HEAD =         413.2079
               WELLS =           0.0000                 WELLS =           0.0000

            TOTAL IN =       65682.8984              TOTAL IN =         864.9127

          OUT:                                     OUT:
          ----                                     ----
             STORAGE =       1.1143E-02               STORAGE =           0.0000
       CONSTANT HEAD =       28182.8828         CONSTANT HEAD =         364.9128
               WELLS =       37500.0000                 WELLS =         500.0000

           TOTAL OUT =       65682.8906             TOTAL OUT =         864.9128

            IN - OUT =       7.8125E-03              IN - OUT =      -6.1035E-05

 PERCENT DISCREPANCY =           0.00     PERCENT DISCREPANCY =           0.00






          TIME SUMMARY AT END OF TIME STEP  75 IN STRESS PERIOD    2
                    SECONDS     MINUTES      HOURS       DAYS        YEARS
                    -----------------------------------------------------------
   TIME STEP LENGTH  86400.      1440.0      24.000      1.0000     2.73785E-03
 STRESS PERIOD TIME 6.48000E+06 1.08000E+05  1800.0      75.000     0.20534    
         TOTAL TIME 6.56640E+06 1.09440E+05  1824.0      76.000     0.20808    
1
 
 SOLVING FOR HEAD 

 OUTPUT CONTROL FOR STRESS PERIOD    2   TIME STEP  76
    SAVE HEAD FOR ALL LAYERS
    SAVE DRAWDOWN FOR ALL LAYERS
    SAVE BUDGET
    PRINT HEAD FOR ALL LAYERS
    PRINT BUDGET
 UBDSV1 SAVING "         STORAGE" ON UNIT  53 AT TIME STEP 76, STRESS PERIOD   2
 UBDSV2 SAVING "   CONSTANT HEAD" ON UNIT  53 AT TIME STEP 76, STRESS PERIOD   2
 UBDSV1 SAVING "FLOW RIGHT FACE " ON UNIT  53 AT TIME STEP 76, STRESS PERIOD   2
 UBDSV1 SAVING "FLOW FRONT FACE " ON UNIT  53 AT TIME STEP 76, STRESS PERIOD   2
1
              HEAD IN LAYER   1 AT END OF TIME STEP  76 IN STRESS PERIOD    2
  ---------------------------------------------------------------------------

            1           2           3           4           5           6           7           8           9          10
           11          12          13          14          15          16          17          18          19          20
           21          22          23          24          25          26          27          28          29          30
           31          32          33          34          35          36          37          38          39          40
           41          42          43          44          45          46          47          48          49          50
 ........................................................................................................................
   1    10.00       9.950       9.901       9.843       9.797       9.758       9.706       9.635       9.557       9.485    
        9.327       9.130       8.984       8.821       8.648       8.473       8.311       8.125       7.876       7.628    
        7.459       7.266       7.013       6.755       6.525       6.326       6.042       5.783       5.601       5.410    
        5.247       5.143       5.032       4.906       4.785       4.636       4.475       4.258       4.009       3.736    
        3.383       3.023       2.549       2.029       1.638       1.355       1.144      0.9024      0.5299       0.000    
   2    10.00       9.945       9.892       9.843       9.804       9.767       9.709       9.636       9.565       9.468    
        9.313       9.136       8.972       8.824       8.664       8.483       8.290       8.098       7.866       7.617    
        7.432       7.274       7.003       6.724       6.520       6.294       6.019       5.773       5.563       5.383    
        5.246       5.150       5.057       4.922       4.781       4.633       4.448       4.246       4.005       3.693    
        3.363       3.057       2.559       2.044       1.697       1.445       1.202      0.9321      0.5629       0.000    
   3    10.00       9.936       9.892       9.858       9.820       9.782       9.720       9.633       9.546       9.441    
        9.300       9.143       8.985       8.835       8.644       8.417       8.229       8.063       7.849       7.630    
        7.442       7.215       6.946       6.701       6.478       6.225       5.960       5.717       5.501       5.368    
        5.258       5.167       5.073       4.925       4.776       4.618       4.435       4.209       3.939       3.700    
        3.409       2.992       2.506       2.137       1.842       1.551       1.252      0.9447      0.5336       0.000    
   4    10.00       9.936       9.897       9.866       9.841       9.799       9.728       9.628       9.524       9.419    
        9.285       9.144       8.986       8.797       8.562       8.351       8.216       8.029       7.822       7.651    
        7.391       7.103       6.867       6.648       6.433       6.129       5.835       5.640       5.495       5.383    
        5.284       5.189       5.086       4.914       4.731       4.587       4.393       4.159       3.929       3.721    
        3.391       2.930       2.565       2.255       1.939       1.608       1.248      0.8891      0.4559       0.000    
   5    10.00       9.941       9.905       9.875       9.851       9.809       9.733       9.619       9.503       9.398    
        9.284       9.138       8.934       8.713       8.513       8.347       8.178       8.003       7.810       7.567    
        7.264       7.026       6.830       6.609       6.331       6.015       5.775       5.637       5.519       5.404    
        5.290       5.174       5.056       4.889       4.702       4.528       4.355       4.171       3.964       3.690    
        3.315       2.965       2.654       2.341       1.997       1.612       1.160      0.7482      0.3875       0.000    
   6    10.00       9.951       9.916       9.886       9.854       9.807       9.726       9.602       9.502       9.388    
        9.260       9.079       8.855       8.670       8.486       8.296       8.123       7.966       7.749       7.472    
        7.203       6.976       6.775       6.500       6.198       5.960       5.767       5.639       5.506       5.387    
        5.286       5.159       5.012       4.840       4.657       4.509       4.359       4.193       3.975       3.681    
        3.354       3.018       2.699       2.384       2.011       1.545       1.059      0.7030      0.3621       0.000    
   7    10.00       9.958       9.927       9.895       9.861       9.804       9.695       9.576       9.471       9.331    
        9.199       9.005       8.801       8.611       8.420       8.226       8.057       7.913       7.662       7.367    
        7.123       6.891       6.666       6.400       6.145       5.929       5.760       5.604       5.460       5.370    
        5.267       5.125       4.969       4.798       4.642       4.511       4.371       4.202       3.981       3.714    
        3.391       3.045       2.715       2.368       1.999       1.511       1.012      0.6691      0.3168       0.000    
   8    10.00       9.965       9.937       9.903       9.862       9.771       9.638       9.525       9.393       9.259    
        9.112       8.913       8.739       8.544       8.331       8.139       7.993       7.820       7.581       7.294    
        7.011       6.798       6.611       6.337       6.070       5.877       5.686       5.516       5.421       5.332    
        5.207       5.066       4.936       4.787       4.628       4.493       4.387       4.260       4.045       3.740    
        3.386       3.080       2.773       2.369       1.959       1.414      0.9374      0.6551      0.3033       0.000    
   9    10.00       9.972       9.941       9.901       9.834       9.712       9.571       9.437       9.321       9.183    
        9.009       8.832       8.658       8.470       8.249       8.070       7.932       7.726       7.490       7.196    
        6.951       6.738       6.471       6.188       5.963       5.791       5.600       5.461       5.367       5.265    
        5.152       5.026       4.903       4.773       4.637       4.512       4.409       4.296       4.074       3.744    
        3.420       3.149       2.827       2.439       1.833       1.217      0.8927      0.5537      0.2112       0.000    
  10    10.00       9.972       9.939       9.884       9.780       9.635       9.477       9.373       9.263       9.099    
        8.947       8.771       8.597       8.393       8.188       8.026       7.839       7.626       7.376       7.137    
        6.896       6.567       6.291       6.069       5.879       5.723       5.546       5.406       5.313       5.231    
        5.113       4.977       4.868       4.749       4.629       4.545       4.444       4.313       4.059       3.733    
        3.481       3.244       2.875       2.290       1.588       1.142      0.8096      0.4945      0.2468       0.000    
  11    10.00       9.972       9.928       9.842       9.724       9.562       9.422       9.335       9.203       9.063    
        8.916       8.731       8.522       8.303       8.130       7.955       7.780       7.550       7.306       7.071    
        6.723       6.406       6.187       5.989       5.804       5.631       5.463       5.354       5.279       5.196    
        5.062       4.936       4.847       4.742       4.647       4.554       4.438       4.296       4.058       3.799    
        3.535       3.226       2.824       2.178       1.522       1.073      0.7582      0.5754      0.3180       0.000    
  12    10.00       9.970       9.908       9.797       9.643       9.481       9.370       9.282       9.166       9.040    
        8.879       8.682       8.471       8.277       8.101       7.907       7.705       7.468       7.219       6.897    
        6.553       6.314       6.098       5.895       5.691       5.520       5.403       5.324       5.225       5.116    
        4.996       4.906       4.829       4.748       4.665       4.571       4.449       4.278       4.059       3.826    
        3.544       3.207       2.658       1.931       1.372       1.056      0.8413      0.6104      0.3481       0.000    
  13    10.00       9.959       9.863       9.711       9.550       9.410       9.320       9.243       9.145       9.022    
        8.851       8.645       8.452       8.297       8.092       7.854       7.616       7.360       7.082       6.766    
        6.465       6.206       5.971       5.760       5.564       5.440       5.369       5.253       5.126       5.029    
        4.954       4.885       4.815       4.749       4.670       4.589       4.479       4.285       4.062       3.788    
        3.462       3.037       2.398       1.809       1.403       1.135      0.8842      0.6118      0.3024       0.000    
  14    10.00       9.926       9.788       9.620       9.470       9.360       9.299       9.228       9.133       8.998    
        8.810       8.633       8.475       8.312       8.079       7.797       7.542       7.251       6.942       6.614    
        6.322       6.062       5.831       5.623       5.472       5.387       5.298       5.156       5.049       4.978    
        4.926       4.860       4.803       4.741       4.670       4.606       4.476       4.277       4.043       3.700    
        3.317       2.815       2.324       1.896       1.493       1.178      0.8997      0.6123      0.2729       0.000    
  15    10.00       9.861       9.708       9.557       9.436       9.352       9.285       9.217       9.123       8.997    
        8.830       8.658       8.500       8.270       7.995       7.724       7.440       7.139       6.771       6.422    
        6.151       5.900       5.684       5.527       5.414       5.325       5.214       5.083       4.996       4.946    
        4.885       4.833       4.790       4.731       4.666       4.596       4.457       4.270       3.973       3.604    
        3.209       2.759       2.363       1.922       1.583       1.247      0.9110      0.6066      0.2490       0.000    
  16    10.00       9.838       9.671       9.533       9.429       9.352       9.283       9.221       9.129       8.997    
        8.840       8.674       8.479       8.184       7.883       7.657       7.377       6.974       6.555       6.232    
        5.954       5.746       5.570       5.437       5.312       5.232       5.110       5.004       4.940       4.882    
        4.839       4.808       4.763       4.709       4.650       4.569       4.442       4.215       3.893       3.559    
        3.222       2.792       2.348       1.960       1.641       1.289      0.9087      0.5440      0.2049       0.000    
  17    10.00       9.816       9.648       9.537       9.445       9.366       9.298       9.228       9.128       9.005    
        8.857       8.648       8.379       8.061       7.808       7.594       7.249       6.794       6.371       6.061    
        5.840       5.607       5.412       5.270       5.168       5.065       4.960       4.895       4.843       4.815    
        4.802       4.773       4.727       4.674       4.612       4.525       4.375       4.177       3.920       3.573    
        3.191       2.738       2.328       1.986       1.660       1.298      0.9282      0.5670      0.2399       0.000    
  18    10.00       9.805       9.647       9.552       9.468       9.392       9.325       9.239       9.141       9.008    
        8.831       8.583       8.283       8.013       7.766       7.450       7.050       6.635       6.262       5.957    
        5.685       5.387       5.219       5.101       5.012       4.896       4.828       4.773       4.741       4.751    
        4.748       4.723       4.678       4.619       4.556       4.463       4.322       4.163       3.941       3.623    
        3.129       2.648       2.313       1.988       1.711       1.332      0.9239      0.5566      0.2399       0.000    
  19    10.00       9.814       9.682       9.583       9.494       9.418       9.338       9.259       9.168       9.014    
        8.805       8.539       8.243       7.943       7.614       7.271       6.902       6.502       6.126       5.804    
        5.487       5.229       5.096       5.005       4.878       4.775       4.718       4.668       4.660       4.666    
        4.675       4.663       4.609       4.556       4.506       4.436       4.305       4.133       3.910       3.537    
        3.040       2.633       2.300       1.981       1.670       1.279      0.8884      0.5537      0.2611       0.000    
  20    10.00       9.824       9.711       9.625       9.538       9.448       9.354       9.268       9.177       9.020    
        8.792       8.516       8.171       7.780       7.403       7.124       6.752       6.324       5.995       5.675    
        5.394       5.180       5.019       4.880       4.718       4.646       4.609       4.585       4.590       4.592    
        4.599       4.578       4.537       4.509       4.470       4.401       4.251       4.078       3.824       3.406    
        2.979       2.655       2.271       1.907       1.568       1.181      0.8913      0.5502      0.2441       0.000    
  21    10.00       9.849       9.748       9.661       9.566       9.480       9.376       9.283       9.183       9.006    
        8.760       8.421       7.989       7.533       7.184       6.930       6.582       6.270       5.962       5.616    
        5.349       5.113       4.910       4.646       4.512       4.475       4.419       4.459       4.495       4.492    
        4.489       4.464       4.462       4.451       4.422       4.330       4.184       4.036       3.667       3.233    
        2.915       2.564       2.172       1.832       1.472       1.134      0.8072      0.4847      0.2437       0.000    
  22    10.00       9.882       9.776       9.680       9.589       9.507       9.389       9.268       9.151       8.969    
        8.666       8.240       7.754       7.327       7.027       6.764       6.500       6.275       5.935       5.596    
        5.314       4.977       4.612       4.337       4.236       4.137       4.150       4.257       4.297       4.317    
        4.336       4.336       4.365       4.386       4.360       4.267       4.125       3.850       3.430       3.153    
        2.811       2.432       2.080       1.753       1.446       1.044      0.7005      0.4646      0.2613       0.000    
  23    10.00       9.883       9.781       9.695       9.598       9.490       9.356       9.246       9.144       8.913    
        8.542       8.084       7.641       7.269       6.963       6.740       6.491       6.195       5.871       5.600    
        5.209       4.714       4.323       4.044       3.634       3.633       3.853       3.974       4.062       4.149    
        4.188       4.223       4.263       4.299       4.277       4.186       3.979       3.664       3.325       2.984    
        2.656       2.343       2.003       1.745       1.357      0.9489      0.6812      0.4466      0.2321       0.000    
  24    10.00       9.909       9.793       9.680       9.568       9.443       9.323       9.229       9.114       8.842    
        8.419       7.987       7.620       7.295       7.002       6.710       6.406       6.138       5.881       5.564    
        5.095       4.605       4.141       3.296       2.396       2.919       3.421       3.714       3.879       4.015    
        4.089       4.138       4.187       4.202       4.178       4.059       3.828       3.572       3.201       2.840    
        2.584       2.283       1.962       1.632       1.215      0.8802      0.6549      0.4182      0.1846       0.000    
  25    10.00       9.900       9.766       9.628       9.497       9.384       9.292       9.197       9.055       8.773    
        8.330       7.927       7.646       7.342       7.003       6.700       6.415       6.181       5.941       5.532    
        4.996       4.514       3.772       2.402     -0.4581       2.298       3.092       3.557       3.801       3.943    
        4.029       4.087       4.128       4.131       4.093       3.958       3.713       3.413       3.111       2.808    
        2.517       2.191       1.825       1.476       1.080      0.8076      0.6515      0.4060      0.1506       0.000    
  26    10.00       9.875       9.703       9.547       9.442       9.350       9.259       9.143       8.976       8.627    
        8.215       7.934       7.663       7.361       7.043       6.752       6.483       6.250       5.948       5.513    
        5.042       4.509       3.859       3.117       2.435       2.793       3.265       3.592       3.791       3.922    
        4.003       4.063       4.088       4.079       4.018       3.854       3.577       3.335       3.094       2.768    
        2.467       2.099       1.680       1.304      0.9813      0.7893      0.6154      0.3612      0.1538       0.000    
  27    10.00       9.848       9.664       9.519       9.430       9.311       9.190       9.044       8.820       8.490    
        8.198       7.949       7.674       7.379       7.067       6.836       6.650       6.333       5.953       5.510    
        5.110       4.723       4.198       3.708       3.321       3.378       3.557       3.717       3.844       3.937    
        4.021       4.070       4.076       4.046       3.961       3.769       3.549       3.337       3.055       2.749    
        2.438       1.994       1.513       1.161      0.9359      0.7757      0.5845      0.3814      0.1840       0.000    
  28    10.00       9.828       9.694       9.530       9.379       9.233       9.100       8.927       8.704       8.447    
        8.207       7.985       7.712       7.383       7.105       6.918       6.710       6.363       5.922       5.531    
        5.246       4.956       4.542       4.159       3.911       3.828       3.820       3.868       3.949       4.026    
        4.080       4.091       4.081       4.029       3.914       3.740       3.562       3.310       3.017       2.708    
        2.327       1.908       1.432       1.082      0.9252      0.7720      0.6022      0.3981      0.1847       0.000    
  29    10.00       9.834       9.666       9.494       9.313       9.172       9.021       8.829       8.640       8.437    
        8.223       8.002       7.738       7.459       7.220       6.999       6.722       6.337       5.935       5.629    
        5.386       5.130       4.789       4.447       4.244       4.133       4.063       4.061       4.100       4.125    
        4.128       4.121       4.092       4.017       3.883       3.731       3.565       3.329       3.004       2.612    
        2.264       1.818       1.341       1.067      0.9279      0.7772      0.5974      0.3887      0.1934       0.000    
  30    10.00       9.810       9.641       9.434       9.250       9.121       8.960       8.791       8.645       8.462    
        8.243       8.005       7.764       7.542       7.329       7.079       6.727       6.369       6.046       5.754    
        5.544       5.290       4.979       4.681       4.437       4.339       4.274       4.250       4.226       4.204    
        4.178       4.152       4.102       4.003       3.878       3.757       3.589       3.285       2.882       2.479    
        2.123       1.712       1.349       1.095      0.9489      0.7788      0.5866      0.4073      0.1999       0.000    
  31    10.00       9.785       9.590       9.392       9.226       9.092       8.939       8.789       8.645       8.468    
        8.252       8.012       7.804       7.620       7.421       7.140       6.792       6.479       6.224       5.964    
        5.738       5.451       5.144       4.893       4.645       4.486       4.422       4.359       4.313       4.266    
        4.231       4.181       4.108       4.010       3.887       3.749       3.483       3.142       2.805       2.410    
        2.073       1.663       1.308       1.123      0.9662      0.8060      0.6061      0.4076      0.1933       0.000    
  32    10.00       9.769       9.559       9.390       9.250       9.115       8.956       8.786       8.612       8.445    
        8.232       8.025       7.840       7.638       7.454       7.216       6.945       6.709       6.445       6.175    
        5.948       5.679       5.369       5.098       4.840       4.615       4.529       4.448       4.382       4.315    
        4.265       4.215       4.118       3.992       3.876       3.683       3.352       3.029       2.730       2.369    
        1.975       1.591       1.329       1.187       1.015      0.8127      0.6014      0.3871      0.1932       0.000    
  33    10.00       9.762       9.582       9.447       9.307       9.151       8.960       8.772       8.585       8.395    
        8.218       8.044       7.862       7.669       7.464       7.280       7.081       6.880       6.663       6.399    
        6.135       5.883       5.621       5.305       4.988       4.732       4.603       4.523       4.442       4.357    
        4.295       4.224       4.118       3.995       3.824       3.558       3.216       2.941       2.651       2.229    
        1.869       1.616       1.407       1.238       1.041      0.8284      0.5695      0.3405      0.1535       0.000    
  34    10.00       9.783       9.636       9.509       9.355       9.164       8.963       8.744       8.538       8.379    
        8.221       8.062       7.897       7.699       7.519       7.340       7.168       7.008       6.801       6.533    
        6.283       6.054       5.795       5.467       5.118       4.833       4.666       4.572       4.480       4.385    
        4.302       4.225       4.118       3.964       3.755       3.427       3.092       2.841       2.495       2.121    
        1.897       1.730       1.528       1.310       1.052      0.7514      0.4602      0.2727      0.1131       0.000    
  35    10.00       9.819       9.687       9.558       9.393       9.179       8.950       8.707       8.512       8.375    
        8.269       8.110       7.928       7.717       7.525       7.399       7.272       7.108       6.894       6.639    
        6.400       6.174       5.935       5.568       5.175       4.903       4.720       4.610       4.504       4.395    
        4.311       4.219       4.093       3.894       3.570       3.226       3.001       2.737       2.382       2.154    
        1.997       1.807       1.604       1.391       1.064      0.6392      0.3537      0.2326      0.1181       0.000    
  36    10.00       9.841       9.727       9.603       9.428       9.175       8.896       8.667       8.526       8.421    
        8.277       8.097       7.931       7.745       7.576       7.450       7.330       7.185       7.017       6.781    
        6.533       6.294       6.001       5.608       5.220       4.944       4.770       4.641       4.511       4.399    
        4.305       4.187       3.988       3.692       3.397       3.156       2.943       2.666       2.379       2.227    
        2.067       1.896       1.692       1.417      0.9714      0.5388      0.3324      0.2129      0.1094       0.000    
  37    10.00       9.858       9.770       9.637       9.405       9.128       8.882       8.704       8.587       8.460    
        8.276       8.084       7.940       7.780       7.624       7.503       7.394       7.259       7.082       6.878    
        6.676       6.415       6.051       5.680       5.313       5.002       4.794       4.633       4.515       4.393    
        4.273       4.102       3.807       3.535       3.323       3.115       2.893       2.674       2.467       2.297    
        2.142       1.950       1.718       1.356      0.8915      0.5203      0.3119      0.1982      9.9431E-02   0.000    
  38    10.00       9.879       9.773       9.628       9.388       9.103       8.896       8.763       8.643       8.495    
        8.300       8.098       7.957       7.810       7.654       7.535       7.441       7.324       7.151       6.974    
        6.788       6.493       6.082       5.682       5.325       5.022       4.797       4.618       4.501       4.388    
        4.221       3.940       3.676       3.501       3.289       3.081       2.920       2.733       2.543       2.379    
        2.197       1.935       1.639       1.247      0.7849      0.4997      0.3516      0.2191      9.8314E-02   0.000    
  39    10.00       9.878       9.758       9.607       9.375       9.118       8.930       8.813       8.667       8.504    
        8.346       8.143       7.981       7.843       7.693       7.566       7.460       7.348       7.209       7.049    
        6.837       6.525       6.104       5.658       5.291       5.011       4.757       4.576       4.480       4.374    
        4.124       3.826       3.655       3.455       3.257       3.107       2.971       2.800       2.615       2.461    
        2.197       1.825       1.477       1.052      0.7016      0.5418      0.4035      0.2627      0.1352       0.000    
  40    10.00       9.869       9.764       9.610       9.397       9.182       9.000       8.845       8.673       8.524    
        8.405       8.209       8.006       7.865       7.727       7.585       7.469       7.379       7.259       7.073    
        6.832       6.476       6.050       5.633       5.256       4.965       4.684       4.539       4.454       4.313    
        4.087       3.857       3.625       3.415       3.274       3.143       3.013       2.853       2.682       2.479    
        2.122       1.716       1.339      0.9939      0.7533      0.5886      0.4507      0.3182      0.1562       0.000    
  41    10.00       9.887       9.803       9.654       9.436       9.212       9.039       8.902       8.733       8.555    
        8.415       8.238       8.052       7.919       7.759       7.589       7.487       7.393       7.241       7.041    
        6.795       6.450       6.025       5.617       5.241       4.855       4.592       4.512       4.421       4.314    
        4.132       3.855       3.621       3.453       3.310       3.192       3.050       2.895       2.719       2.404    
        1.985       1.588       1.259       1.005      0.7962      0.6433      0.4958      0.3503      0.1845       0.000    
  42    10.00       9.916       9.823       9.681       9.494       9.282       9.087       8.945       8.794       8.600    
        8.422       8.253       8.096       7.969       7.802       7.621       7.500       7.373       7.208       6.983    
        6.704       6.328       5.958       5.556       5.067       4.721       4.579       4.515       4.437       4.320    
        4.107       3.865       3.644       3.474       3.358       3.232       3.105       2.938       2.657       2.239    
        1.873       1.576       1.289       1.001      0.8073      0.6773      0.5357      0.3651      0.2026       0.000    
  43    10.00       9.934       9.836       9.690       9.507       9.331       9.158       9.000       8.816       8.618    
        8.454       8.284       8.130       8.012       7.857       7.656       7.497       7.352       7.127       6.841    
        6.567       6.207       5.863       5.405       4.944       4.713       4.599       4.526       4.450       4.328    
        4.126       3.903       3.690       3.522       3.410       3.285       3.119       2.882       2.472       2.101    
        1.871       1.607       1.305       1.006      0.8003      0.6799      0.5706      0.3953      0.1853       0.000    
  44    10.00       9.927       9.844       9.693       9.527       9.401       9.229       9.017       8.809       8.644    
        8.482       8.313       8.177       8.055       7.876       7.664       7.483       7.310       7.045       6.755    
        6.427       6.066       5.702       5.243       4.895       4.722       4.626       4.560       4.477       4.325    
        4.116       3.938       3.750       3.593       3.479       3.310       3.089       2.749       2.330       2.083    
        1.872       1.597       1.295       1.021      0.8115      0.6826      0.5715      0.3876      0.1708       0.000    
  45    10.00       9.912       9.813       9.692       9.572       9.412       9.233       9.033       8.826       8.662    
        8.495       8.344       8.224       8.087       7.893       7.668       7.464       7.267       6.980       6.638    
        6.260       5.875       5.482       5.143       4.901       4.754       4.660       4.591       4.488       4.363    
        4.182       3.979       3.810       3.650       3.490       3.311       3.069       2.705       2.340       2.051    
        1.810       1.550       1.267       1.022      0.8381      0.7308      0.5646      0.3362      0.1533       0.000    
  46    10.00       9.895       9.792       9.696       9.561       9.380       9.207       9.044       8.842       8.667    
        8.520       8.379       8.259       8.097       7.892       7.691       7.475       7.217       6.906       6.534    
        6.087       5.704       5.388       5.129       4.945       4.815       4.700       4.608       4.527       4.387    
        4.196       4.020       3.856       3.674       3.514       3.341       3.068       2.648       2.264       2.006    
        1.778       1.528       1.262       1.046      0.9031      0.7650      0.5128      0.2521      0.1096       0.000    
  47    10.00       9.888       9.784       9.653       9.497       9.348       9.200       9.024       8.841       8.685    
        8.550       8.424       8.258       8.083       7.899       7.704       7.469       7.169       6.876       6.424    
        5.937       5.636       5.364       5.161       4.989       4.863       4.749       4.637       4.542       4.398    
        4.199       4.025       3.861       3.688       3.548       3.341       2.962       2.584       2.262       1.986    
        1.786       1.549       1.312       1.103      0.9259      0.7029      0.4226      0.2209      9.1993E-02   0.000    
  48    10.00       9.876       9.752       9.612       9.470       9.339       9.189       9.028       8.858       8.705    
        8.569       8.422       8.242       8.061       7.881       7.689       7.465       7.182       6.818       6.368    
        5.946       5.637       5.371       5.185       5.046       4.892       4.776       4.683       4.565       4.370    
        4.175       4.006       3.854       3.726       3.543       3.269       2.907       2.566       2.260       2.017    
        1.801       1.576       1.361       1.125      0.8599      0.5721      0.3617      0.2145      9.6928E-02   0.000    
  49    10.00       9.865       9.730       9.593       9.477       9.341       9.182       9.024       8.887       8.729    
        8.566       8.382       8.205       8.054       7.849       7.662       7.476       7.160       6.799       6.441    
        5.995       5.651       5.387       5.223       5.061       4.895       4.805       4.717       4.531       4.296    
        4.128       3.993       3.882       3.716       3.504       3.259       2.896       2.554       2.314       2.056    
        1.802       1.594       1.366       1.087      0.7622      0.5105      0.3620      0.2337      0.1199       0.000    
  50    10.00       9.870       9.735       9.595       9.469       9.336       9.194       9.039       8.895       8.754    
        8.554       8.363       8.200       7.997       7.789       7.646       7.469       7.224       6.867       6.513    
        6.059       5.625       5.396       5.230       5.060       4.925       4.818       4.701       4.481       4.257    
        4.118       4.006       3.877       3.705       3.508       3.273       2.906       2.556       2.323       2.090    
        1.848       1.587       1.330       1.031      0.7108      0.5225      0.3896      0.2641      0.1593       0.000    

 HEAD WILL BE SAVED ON UNIT   51 AT END OF TIME STEP  76, STRESS PERIOD    2

 DRAWDOWN WILL BE SAVED ON UNIT   52 AT END OF TIME STEP  76, STRESS PERIOD    2
1
  VOLUMETRIC BUDGET FOR ENTIRE MODEL AT END OF TIME STEP 76 IN STRESS PERIOD   2
  ------------------------------------------------------------------------------

     CUMULATIVE VOLUMES      L**3       RATES FOR THIS TIME STEP      L**3/T
     ------------------                 ------------------------

           IN:                                      IN:
           ---                                      ---
             STORAGE =       36897.2188               STORAGE =         450.3526
       CONSTANT HEAD =       29650.2676         CONSTANT HEAD =         414.2371
               WELLS =           0.0000                 WELLS =           0.0000

            TOTAL IN =       66547.4844              TOTAL IN =         864.5897

          OUT:                                     OUT:
          ----                                     ----
             STORAGE =       1.1143E-02               STORAGE =           0.0000
       CONSTANT HEAD =       28547.4727         CONSTANT HEAD =         364.5893
               WELLS =       38000.0000                 WELLS =         500.0000

           TOTAL OUT =       66547.4844             TOTAL OUT =         864.5893

            IN - OUT =           0.0000              IN - OUT =       3.6621E-04

 PERCENT DISCREPANCY =           0.00     PERCENT DISCREPANCY =           0.00






          TIME SUMMARY AT END OF TIME STEP  76 IN STRESS PERIOD    2
                    SECONDS     MINUTES      HOURS       DAYS        YEARS
                    -----------------------------------------------------------
   TIME STEP LENGTH  86400.      1440.0      24.000      1.0000     2.73785E-03
 STRESS PERIOD TIME 6.56640E+06 1.09440E+05  1824.0      76.000     0.20808    
         TOTAL TIME 6.65280E+06 1.10880E+05  1848.0      77.000     0.21081    
1
 
 SOLVING FOR HEAD 

 OUTPUT CONTROL FOR STRESS PERIOD    2   TIME STEP  77
    SAVE HEAD FOR ALL LAYERS
    SAVE DRAWDOWN FOR ALL LAYERS
    SAVE BUDGET
    PRINT HEAD FOR ALL LAYERS
    PRINT BUDGET
 UBDSV1 SAVING "         STORAGE" ON UNIT  53 AT TIME STEP 77, STRESS PERIOD   2
 UBDSV2 SAVING "   CONSTANT HEAD" ON UNIT  53 AT TIME STEP 77, STRESS PERIOD   2
 UBDSV1 SAVING "FLOW RIGHT FACE " ON UNIT  53 AT TIME STEP 77, STRESS PERIOD   2
 UBDSV1 SAVING "FLOW FRONT FACE " ON UNIT  53 AT TIME STEP 77, STRESS PERIOD   2
1
              HEAD IN LAYER   1 AT END OF TIME STEP  77 IN STRESS PERIOD    2
  ---------------------------------------------------------------------------

            1           2           3           4           5           6           7           8           9          10
           11          12          13          14          15          16          17          18          19          20
           21          22          23          24          25          26          27          28          29          30
           31          32          33          34          35          36          37          38          39          40
           41          42          43          44          45          46          47          48          49          50
 ........................................................................................................................
   1    10.00       9.950       9.901       9.842       9.796       9.758       9.706       9.634       9.556       9.484    
        9.326       9.128       8.982       8.819       8.646       8.470       8.308       8.122       7.873       7.625    
        7.455       7.262       7.008       6.751       6.521       6.321       6.037       5.778       5.595       5.405    
        5.242       5.137       5.026       4.901       4.780       4.631       4.471       4.254       4.005       3.733    
        3.380       3.021       2.547       2.028       1.636       1.354       1.143      0.9017      0.5294       0.000    
   2    10.00       9.945       9.892       9.843       9.804       9.766       9.709       9.635       9.564       9.467    
        9.312       9.135       8.970       8.822       8.662       8.481       8.287       8.095       7.863       7.613    
        7.429       7.270       6.999       6.720       6.515       6.289       6.014       5.768       5.557       5.377    
        5.240       5.145       5.051       4.917       4.776       4.628       4.444       4.241       4.000       3.689    
        3.360       3.054       2.557       2.042       1.695       1.444       1.201      0.9313      0.5624       0.000    
   3    10.00       9.936       9.892       9.857       9.820       9.781       9.719       9.632       9.545       9.440    
        9.299       9.142       8.983       8.833       8.642       8.415       8.226       8.060       7.846       7.626    
        7.438       7.211       6.942       6.696       6.473       6.220       5.955       5.711       5.495       5.362    
        5.252       5.161       5.067       4.920       4.771       4.613       4.431       4.204       3.934       3.696    
        3.406       2.989       2.504       2.135       1.841       1.549       1.251      0.9440      0.5332       0.000    
   4    10.00       9.936       9.897       9.866       9.840       9.799       9.727       9.627       9.524       9.418    
        9.284       9.143       8.984       8.795       8.559       8.348       8.213       8.026       7.819       7.647    
        7.387       7.098       6.862       6.643       6.428       6.123       5.830       5.634       5.489       5.377    
        5.278       5.183       5.081       4.909       4.726       4.582       4.388       4.154       3.925       3.718    
        3.387       2.928       2.562       2.252       1.937       1.607       1.247      0.8884      0.4555       0.000    
   5    10.00       9.941       9.905       9.874       9.851       9.808       9.733       9.618       9.503       9.397    
        9.283       9.137       8.932       8.710       8.511       8.344       8.175       8.000       7.806       7.563    
        7.260       7.021       6.825       6.604       6.325       6.009       5.769       5.631       5.513       5.398    
        5.284       5.168       5.050       4.883       4.696       4.523       4.349       4.166       3.959       3.686    
        3.311       2.962       2.651       2.339       1.995       1.610       1.159      0.7475      0.3872       0.000    
   6    10.00       9.951       9.916       9.886       9.854       9.806       9.726       9.602       9.501       9.387    
        9.259       9.077       8.852       8.668       8.483       8.293       8.119       7.963       7.745       7.468    
        7.198       6.971       6.769       6.494       6.192       5.954       5.761       5.633       5.500       5.380    
        5.280       5.153       5.006       4.834       4.651       4.503       4.354       4.188       3.971       3.676    
        3.351       3.014       2.697       2.382       2.009       1.544       1.058      0.7024      0.3618       0.000    
   7    10.00       9.958       9.927       9.895       9.860       9.804       9.695       9.575       9.470       9.329    
        9.197       9.003       8.798       8.608       8.417       8.222       8.054       7.909       7.658       7.362    
        7.118       6.885       6.661       6.394       6.139       5.922       5.753       5.597       5.454       5.363    
        5.260       5.118       4.963       4.792       4.636       4.505       4.366       4.197       3.976       3.710    
        3.387       3.041       2.713       2.365       1.997       1.510       1.011      0.6685      0.3165       0.000    
   8    10.00       9.965       9.937       9.902       9.862       9.770       9.637       9.524       9.391       9.257    
        9.110       8.911       8.736       8.541       8.328       8.135       7.989       7.816       7.576       7.289    
        7.005       6.792       6.605       6.330       6.063       5.871       5.679       5.509       5.414       5.324    
        5.200       5.059       4.929       4.781       4.621       4.487       4.381       4.254       4.040       3.735    
        3.382       3.076       2.770       2.367       1.957       1.412      0.9365      0.6545      0.3030       0.000    
   9    10.00       9.972       9.941       9.901       9.833       9.712       9.570       9.436       9.320       9.181    
        9.007       8.830       8.655       8.467       8.246       8.066       7.928       7.721       7.485       7.190    
        6.945       6.732       6.464       6.181       5.955       5.783       5.592       5.453       5.360       5.257    
        5.145       5.019       4.896       4.766       4.631       4.505       4.402       4.290       4.068       3.739    
        3.416       3.145       2.824       2.436       1.831       1.216      0.8919      0.5532      0.2110       0.000    
  10    10.00       9.972       9.939       9.884       9.779       9.634       9.476       9.372       9.261       9.097    
        8.944       8.768       8.594       8.389       8.184       8.022       7.834       7.621       7.370       7.131    
        6.890       6.560       6.284       6.061       5.871       5.715       5.538       5.398       5.305       5.223    
        5.106       4.970       4.860       4.742       4.622       4.538       4.437       4.306       4.053       3.728    
        3.477       3.240       2.872       2.287       1.586       1.141      0.8088      0.4940      0.2465       0.000    
  11    10.00       9.972       9.928       9.842       9.724       9.561       9.421       9.333       9.201       9.060    
        8.914       8.728       8.519       8.299       8.126       7.951       7.774       7.544       7.300       7.065    
        6.716       6.398       6.180       5.981       5.796       5.623       5.454       5.346       5.271       5.188    
        5.053       4.928       4.839       4.734       4.640       4.547       4.431       4.290       4.052       3.793    
        3.530       3.222       2.821       2.176       1.520       1.072      0.7574      0.5748      0.3177       0.000    
  12    10.00       9.970       9.908       9.797       9.642       9.479       9.368       9.280       9.164       9.037    
        8.876       8.678       8.467       8.273       8.096       7.902       7.699       7.462       7.213       6.890    
        6.545       6.306       6.090       5.887       5.683       5.511       5.395       5.315       5.217       5.108    
        4.988       4.898       4.820       4.740       4.658       4.564       4.442       4.272       4.053       3.821    
        3.539       3.203       2.654       1.928       1.370       1.055      0.8405      0.6098      0.3478       0.000    
  13    10.00       9.959       9.863       9.711       9.548       9.409       9.318       9.241       9.142       9.019    
        8.848       8.642       8.448       8.292       8.087       7.849       7.610       7.353       7.075       6.759    
        6.457       6.197       5.963       5.751       5.555       5.431       5.360       5.244       5.117       5.020    
        4.945       4.876       4.807       4.741       4.662       4.581       4.471       4.278       4.056       3.782    
        3.457       3.032       2.395       1.807       1.402       1.133      0.8832      0.6112      0.3021       0.000    
  14    10.00       9.925       9.787       9.619       9.468       9.358       9.297       9.226       9.131       8.995    
        8.806       8.629       8.471       8.308       8.074       7.792       7.536       7.244       6.935       6.606    
        6.313       6.053       5.822       5.614       5.462       5.377       5.288       5.147       5.040       4.969    
        4.916       4.851       4.794       4.732       4.662       4.598       4.468       4.270       4.037       3.694    
        3.313       2.811       2.321       1.893       1.491       1.176      0.8987      0.6117      0.2726       0.000    
  15    10.00       9.860       9.707       9.556       9.435       9.350       9.283       9.215       9.121       8.994    
        8.826       8.654       8.496       8.265       7.990       7.718       7.433       7.132       6.763       6.414    
        6.142       5.891       5.675       5.517       5.404       5.315       5.204       5.073       4.986       4.936    
        4.875       4.823       4.780       4.722       4.657       4.587       4.449       4.263       3.967       3.598    
        3.204       2.755       2.360       1.919       1.581       1.246      0.9100      0.6060      0.2488       0.000    
  16    10.00       9.837       9.670       9.532       9.427       9.350       9.280       9.218       9.126       8.994    
        8.837       8.671       8.474       8.179       7.877       7.651       7.370       6.966       6.546       6.223    
        5.945       5.737       5.560       5.427       5.302       5.223       5.100       4.995       4.930       4.873    
        4.829       4.799       4.754       4.700       4.641       4.560       4.434       4.207       3.886       3.553    
        3.217       2.788       2.345       1.957       1.639       1.287      0.9078      0.5435      0.2047       0.000    
  17    10.00       9.815       9.647       9.536       9.443       9.364       9.296       9.226       9.126       9.002    
        8.854       8.645       8.375       8.055       7.802       7.587       7.242       6.786       6.362       6.051    
        5.830       5.597       5.402       5.259       5.157       5.055       4.949       4.885       4.833       4.805    
        4.792       4.763       4.718       4.665       4.603       4.516       4.367       4.169       3.912       3.567    
        3.186       2.734       2.325       1.983       1.658       1.297      0.9272      0.5664      0.2396       0.000    
  18    10.00       9.804       9.646       9.550       9.466       9.390       9.323       9.237       9.138       9.006    
        8.827       8.579       8.278       8.008       7.759       7.443       7.042       6.626       6.253       5.947    
        5.675       5.377       5.209       5.090       5.001       4.885       4.818       4.762       4.730       4.740    
        4.738       4.713       4.668       4.609       4.546       4.454       4.314       4.155       3.934       3.617    
        3.124       2.644       2.310       1.986       1.709       1.330      0.9229      0.5560      0.2397       0.000    
  19    10.00       9.813       9.681       9.582       9.492       9.416       9.336       9.256       9.165       9.011    
        8.801       8.535       8.238       7.937       7.607       7.264       6.894       6.493       6.116       5.793    
        5.477       5.219       5.085       4.994       4.867       4.764       4.708       4.657       4.650       4.655    
        4.665       4.652       4.599       4.546       4.496       4.427       4.296       4.124       3.902       3.531    
        3.035       2.629       2.297       1.979       1.668       1.277      0.8875      0.5531      0.2609       0.000    
  20    10.00       9.823       9.710       9.623       9.537       9.446       9.352       9.266       9.174       9.017    
        8.788       8.511       8.165       7.773       7.395       7.116       6.743       6.315       5.985       5.665    
        5.383       5.170       5.008       4.869       4.706       4.635       4.598       4.574       4.579       4.581    
        4.588       4.567       4.526       4.499       4.460       4.391       4.241       4.069       3.816       3.400    
        2.974       2.651       2.268       1.905       1.566       1.180      0.8904      0.5497      0.2439       0.000    
  21    10.00       9.849       9.748       9.660       9.565       9.478       9.374       9.281       9.181       9.003    
        8.756       8.416       7.983       7.526       7.176       6.922       6.573       6.260       5.952       5.606    
        5.338       5.102       4.899       4.635       4.501       4.464       4.408       4.448       4.484       4.481    
        4.478       4.453       4.451       4.440       4.412       4.320       4.175       4.027       3.659       3.227    
        2.910       2.560       2.169       1.830       1.471       1.133      0.8064      0.4842      0.2434       0.000    
  22    10.00       9.881       9.775       9.679       9.587       9.506       9.387       9.265       9.149       8.965    
        8.662       8.235       7.747       7.319       7.019       6.755       6.490       6.265       5.925       5.585    
        5.303       4.966       4.600       4.326       4.225       4.125       4.139       4.245       4.285       4.306    
        4.324       4.324       4.353       4.375       4.349       4.257       4.116       3.841       3.423       3.147    
        2.806       2.429       2.077       1.750       1.444       1.043      0.6998      0.4641      0.2611       0.000    
  23    10.00       9.883       9.780       9.694       9.597       9.488       9.354       9.244       9.141       8.909    
        8.537       8.078       7.634       7.261       6.954       6.731       6.481       6.186       5.861       5.590    
        5.198       4.703       4.312       4.032       3.622       3.621       3.841       3.962       4.050       4.137    
        4.177       4.211       4.252       4.288       4.266       4.176       3.969       3.656       3.318       2.978    
        2.651       2.339       2.000       1.743       1.355      0.9479      0.6805      0.4462      0.2318       0.000    
  24    10.00       9.908       9.792       9.679       9.567       9.442       9.321       9.226       9.111       8.838    
        8.414       7.981       7.613       7.287       6.994       6.701       6.396       6.128       5.871       5.553    
        5.084       4.593       4.129       3.284       2.384       2.907       3.409       3.702       3.867       4.003    
        4.077       4.126       4.175       4.191       4.167       4.048       3.819       3.564       3.195       2.835    
        2.580       2.279       1.959       1.630       1.213      0.8792      0.6542      0.4177      0.1844       0.000    
  25    10.00       9.900       9.766       9.627       9.495       9.382       9.289       9.195       9.052       8.769    
        8.324       7.921       7.638       7.334       6.994       6.691       6.406       6.171       5.931       5.522    
        4.985       4.503       3.761       2.389     -0.4711       2.285       3.080       3.544       3.789       3.931    
        4.017       4.075       4.116       4.119       4.081       3.948       3.704       3.405       3.104       2.802    
        2.512       2.188       1.823       1.474       1.079      0.8067      0.6507      0.4056      0.1504       0.000    
  26    10.00       9.875       9.702       9.546       9.440       9.348       9.257       9.140       8.973       8.623    
        8.210       7.927       7.656       7.353       7.034       6.743       6.474       6.240       5.938       5.502    
        5.031       4.498       3.848       3.105       2.423       2.781       3.253       3.579       3.779       3.910    
        3.991       4.050       4.076       4.067       4.007       3.843       3.568       3.327       3.087       2.762    
        2.463       2.095       1.677       1.302      0.9801      0.7884      0.6147      0.3608      0.1536       0.000    
  27    10.00       9.847       9.663       9.517       9.428       9.308       9.188       9.041       8.816       8.485    
        8.192       7.943       7.667       7.371       7.059       6.827       6.641       6.324       5.943       5.499    
        5.099       4.711       4.187       3.696       3.308       3.365       3.545       3.705       3.832       3.925    
        4.009       4.058       4.064       4.035       3.949       3.759       3.540       3.329       3.048       2.744    
        2.434       1.990       1.511       1.159      0.9347      0.7747      0.5838      0.3810      0.1838       0.000    
  28    10.00       9.827       9.693       9.529       9.377       9.231       9.097       8.923       8.700       8.443    
        8.202       7.979       7.705       7.375       7.097       6.910       6.701       6.353       5.912       5.520    
        5.235       4.945       4.531       4.147       3.899       3.816       3.808       3.856       3.937       4.014    
        4.068       4.079       4.070       4.018       3.903       3.730       3.553       3.302       3.010       2.703    
        2.323       1.905       1.429       1.081      0.9240      0.7711      0.6015      0.3976      0.1844       0.000    
  29    10.00       9.833       9.665       9.492       9.311       9.169       9.018       8.825       8.636       8.432    
        8.218       7.996       7.731       7.452       7.213       6.990       6.713       6.327       5.925       5.619    
        5.375       5.119       4.778       4.435       4.233       4.122       4.052       4.049       4.088       4.113    
        4.116       4.110       4.080       4.006       3.873       3.722       3.556       3.321       2.997       2.607    
        2.259       1.815       1.339       1.065      0.9267      0.7763      0.5967      0.3882      0.1931       0.000    
  30    10.00       9.809       9.640       9.432       9.248       9.118       8.956       8.787       8.641       8.458    
        8.238       7.999       7.758       7.535       7.322       7.071       6.718       6.360       6.036       5.744    
        5.533       5.279       4.968       4.670       4.425       4.327       4.263       4.238       4.214       4.192    
        4.166       4.141       4.091       3.992       3.868       3.747       3.580       3.278       2.876       2.474    
        2.120       1.710       1.348       1.094      0.9477      0.7778      0.5860      0.4068      0.1996       0.000    
  31    10.00       9.784       9.589       9.390       9.224       9.089       8.936       8.786       8.641       8.463    
        8.247       8.007       7.798       7.614       7.414       7.133       6.784       6.470       6.214       5.954    
        5.728       5.440       5.133       4.882       4.633       4.475       4.411       4.348       4.302       4.254    
        4.220       4.169       4.097       3.999       3.877       3.740       3.475       3.135       2.799       2.406    
        2.070       1.660       1.306       1.122      0.9650      0.8050      0.6054      0.4071      0.1930       0.000    
  32    10.00       9.768       9.558       9.388       9.248       9.113       8.953       8.783       8.608       8.440    
        8.227       8.020       7.834       7.631       7.447       7.209       6.937       6.700       6.436       6.165    
        5.938       5.669       5.358       5.087       4.829       4.604       4.518       4.437       4.371       4.304    
        4.254       4.204       4.107       3.982       3.866       3.674       3.345       3.023       2.725       2.365    
        1.972       1.589       1.328       1.186       1.014      0.8118      0.6006      0.3866      0.1929       0.000    
  33    10.00       9.761       9.581       9.445       9.305       9.149       8.957       8.768       8.581       8.390    
        8.213       8.039       7.856       7.663       7.458       7.273       7.074       6.872       6.655       6.390    
        6.126       5.874       5.611       5.295       4.977       4.721       4.592       4.512       4.431       4.347    
        4.285       4.214       4.108       3.985       3.815       3.550       3.210       2.935       2.646       2.225    
        1.866       1.614       1.405       1.236       1.040      0.8274      0.5688      0.3401      0.1533       0.000    
  34    10.00       9.782       9.635       9.508       9.353       9.162       8.960       8.740       8.534       8.374    
        8.216       8.057       7.892       7.693       7.512       7.333       7.161       7.000       6.793       6.524    
        6.274       6.045       5.785       5.457       5.108       4.822       4.656       4.561       4.470       4.375    
        4.292       4.215       4.108       3.955       3.747       3.420       3.086       2.836       2.491       2.118    
        1.895       1.727       1.526       1.308       1.050      0.7505      0.4597      0.2724      0.1130       0.000    
  35    10.00       9.818       9.687       9.557       9.391       9.177       8.947       8.703       8.507       8.370    
        8.264       8.105       7.922       7.711       7.519       7.392       7.265       7.100       6.887       6.631    
        6.392       6.165       5.925       5.558       5.165       4.893       4.710       4.600       4.494       4.386    
        4.302       4.209       4.084       3.885       3.563       3.221       2.997       2.733       2.378       2.152    
        1.995       1.804       1.602       1.389       1.063      0.6385      0.3533      0.2324      0.1180       0.000    
  36    10.00       9.840       9.726       9.602       9.427       9.173       8.893       8.663       8.523       8.416    
        8.273       8.092       7.925       7.739       7.570       7.444       7.324       7.178       7.009       6.773    
        6.525       6.285       5.992       5.599       5.211       4.934       4.761       4.631       4.502       4.389    
        4.296       4.178       3.980       3.685       3.391       3.151       2.938       2.662       2.376       2.225    
        2.065       1.894       1.690       1.415      0.9702      0.5382      0.3321      0.2126      0.1093       0.000    
  37    10.00       9.857       9.769       9.636       9.403       9.126       8.879       8.700       8.583       8.456    
        8.271       8.079       7.935       7.774       7.618       7.497       7.388       7.252       7.075       6.871    
        6.668       6.406       6.042       5.672       5.304       4.993       4.785       4.624       4.507       4.385    
        4.265       4.094       3.800       3.529       3.318       3.111       2.889       2.670       2.464       2.294    
        2.140       1.948       1.716       1.355      0.8906      0.5198      0.3116      0.1980      9.9334E-02   0.000    
  38    10.00       9.879       9.772       9.627       9.387       9.101       8.893       8.760       8.639       8.491    
        8.295       8.093       7.952       7.804       7.649       7.529       7.434       7.318       7.144       6.967    
        6.781       6.485       6.074       5.674       5.317       5.014       4.789       4.611       4.493       4.381    
        4.213       3.934       3.670       3.496       3.285       3.077       2.916       2.729       2.540       2.376    
        2.194       1.932       1.638       1.245      0.7842      0.4992      0.3513      0.2189      9.8225E-02   0.000    
  39    10.00       9.878       9.758       9.606       9.374       9.116       8.928       8.810       8.664       8.501    
        8.342       8.138       7.976       7.838       7.687       7.560       7.454       7.341       7.202       7.042    
        6.830       6.517       6.096       5.651       5.284       5.004       4.751       4.569       4.473       4.367    
        4.118       3.821       3.650       3.451       3.253       3.103       2.968       2.797       2.612       2.458    
        2.195       1.823       1.476       1.051      0.7010      0.5413      0.4031      0.2625      0.1351       0.000    
  40    10.00       9.869       9.763       9.609       9.396       9.180       8.997       8.843       8.670       8.520    
        8.401       8.204       8.001       7.860       7.721       7.579       7.463       7.373       7.253       7.067    
        6.826       6.470       6.043       5.627       5.249       4.959       4.678       4.534       4.449       4.308    
        4.082       3.852       3.621       3.411       3.270       3.139       3.010       2.850       2.679       2.477    
        2.120       1.715       1.337      0.9930      0.7526      0.5881      0.4503      0.3179      0.1561       0.000    
  41    10.00       9.887       9.803       9.653       9.435       9.210       9.037       8.899       8.730       8.551    
        8.412       8.234       8.047       7.914       7.754       7.583       7.482       7.387       7.235       7.035    
        6.789       6.444       6.019       5.611       5.235       4.849       4.587       4.507       4.416       4.310    
        4.127       3.851       3.617       3.449       3.306       3.189       3.046       2.892       2.716       2.401    
        1.983       1.587       1.258       1.004      0.7956      0.6428      0.4954      0.3501      0.1844       0.000    
  42    10.00       9.916       9.823       9.680       9.493       9.280       9.085       8.943       8.791       8.597    
        8.419       8.249       8.092       7.965       7.797       7.616       7.495       7.367       7.202       6.978    
        6.699       6.323       5.954       5.551       5.062       4.717       4.574       4.511       4.432       4.316    
        4.103       3.861       3.640       3.470       3.354       3.228       3.101       2.935       2.654       2.237    
        1.871       1.575       1.288       1.000      0.8066      0.6768      0.5353      0.3649      0.2025       0.000    
  43    10.00       9.934       9.835       9.689       9.506       9.330       9.157       8.998       8.814       8.615    
        8.451       8.281       8.126       8.008       7.853       7.651       7.492       7.348       7.123       6.837    
        6.563       6.203       5.859       5.401       4.940       4.709       4.595       4.522       4.446       4.324    
        4.122       3.899       3.687       3.518       3.407       3.282       3.116       2.879       2.469       2.099    
        1.869       1.606       1.304       1.005      0.7997      0.6794      0.5702      0.3951      0.1851       0.000    
  44    10.00       9.927       9.843       9.692       9.526       9.400       9.227       9.015       8.806       8.642    
        8.479       8.310       8.174       8.051       7.873       7.661       7.479       7.306       7.041       6.751    
        6.423       6.062       5.698       5.239       4.891       4.718       4.622       4.557       4.474       4.321    
        4.113       3.934       3.746       3.589       3.475       3.307       3.087       2.747       2.328       2.081    
        1.871       1.596       1.294       1.021      0.8109      0.6822      0.5711      0.3873      0.1707       0.000    
  45    10.00       9.912       9.813       9.692       9.571       9.411       9.232       9.032       8.824       8.660    
        8.493       8.341       8.222       8.084       7.890       7.665       7.461       7.264       6.977       6.635    
        6.256       5.872       5.479       5.139       4.897       4.750       4.656       4.588       4.485       4.359    
        4.179       3.975       3.807       3.647       3.487       3.309       3.066       2.702       2.338       2.049    
        1.808       1.549       1.267       1.021      0.8376      0.7304      0.5643      0.3360      0.1532       0.000    
  46    10.00       9.895       9.791       9.696       9.560       9.379       9.206       9.043       8.841       8.666    
        8.518       8.377       8.257       8.095       7.889       7.689       7.472       7.215       6.904       6.531    
        6.085       5.701       5.385       5.126       4.942       4.812       4.697       4.605       4.524       4.383    
        4.193       4.017       3.853       3.671       3.511       3.339       3.066       2.647       2.263       2.005    
        1.777       1.527       1.261       1.045      0.9026      0.7646      0.5125      0.2519      0.1095       0.000    
  47    10.00       9.888       9.784       9.652       9.496       9.348       9.199       9.023       8.839       8.683    
        8.549       8.423       8.256       8.081       7.897       7.702       7.467       7.167       6.874       6.422    
        5.935       5.634       5.361       5.158       4.986       4.860       4.746       4.634       4.539       4.395    
        4.196       4.022       3.858       3.685       3.546       3.338       2.960       2.583       2.260       1.985    
        1.785       1.549       1.311       1.102      0.9254      0.7026      0.4224      0.2208      9.1948E-02   0.000    
  48    10.00       9.876       9.751       9.611       9.469       9.338       9.188       9.027       8.857       8.704    
        8.567       8.421       8.240       8.059       7.879       7.687       7.463       7.180       6.816       6.366    
        5.943       5.634       5.369       5.182       5.043       4.889       4.773       4.680       4.562       4.367    
        4.172       4.003       3.852       3.723       3.541       3.267       2.906       2.565       2.259       2.016    
        1.800       1.575       1.361       1.124      0.8595      0.5718      0.3616      0.2144      9.6886E-02   0.000    
  49    10.00       9.865       9.730       9.592       9.476       9.340       9.181       9.023       8.886       8.727    
        8.565       8.381       8.204       8.052       7.847       7.661       7.474       7.158       6.797       6.439    
        5.993       5.648       5.384       5.220       5.058       4.892       4.802       4.714       4.528       4.293    
        4.125       3.990       3.880       3.714       3.502       3.257       2.894       2.553       2.313       2.055    
        1.801       1.594       1.365       1.087      0.7619      0.5103      0.3619      0.2336      0.1198       0.000    
  50    10.00       9.870       9.735       9.595       9.469       9.335       9.194       9.038       8.894       8.752    
        8.553       8.361       8.199       7.995       7.787       7.645       7.467       7.222       6.865       6.510    
        6.056       5.623       5.393       5.227       5.058       4.923       4.815       4.698       4.478       4.254    
        4.115       4.003       3.875       3.702       3.506       3.272       2.905       2.555       2.322       2.089    
        1.848       1.586       1.329       1.031      0.7105      0.5223      0.3894      0.2640      0.1592       0.000    

 HEAD WILL BE SAVED ON UNIT   51 AT END OF TIME STEP  77, STRESS PERIOD    2

 DRAWDOWN WILL BE SAVED ON UNIT   52 AT END OF TIME STEP  77, STRESS PERIOD    2
1
  VOLUMETRIC BUDGET FOR ENTIRE MODEL AT END OF TIME STEP 77 IN STRESS PERIOD   2
  ------------------------------------------------------------------------------

     CUMULATIVE VOLUMES      L**3       RATES FOR THIS TIME STEP      L**3/T
     ------------------                 ------------------------

           IN:                                      IN:
           ---                                      ---
             STORAGE =       37346.2109               STORAGE =         448.9928
       CONSTANT HEAD =       30065.5352         CONSTANT HEAD =         415.2672
               WELLS =           0.0000                 WELLS =           0.0000

            TOTAL IN =       67411.7500              TOTAL IN =         864.2599

          OUT:                                     OUT:
          ----                                     ----
             STORAGE =       1.1143E-02               STORAGE =           0.0000
       CONSTANT HEAD =       28911.7324         CONSTANT HEAD =         364.2600
               WELLS =       38500.0000                 WELLS =         500.0000

           TOTAL OUT =       67411.7422             TOTAL OUT =         864.2600

            IN - OUT =       7.8125E-03              IN - OUT =      -6.1035E-05

 PERCENT DISCREPANCY =           0.00     PERCENT DISCREPANCY =           0.00






          TIME SUMMARY AT END OF TIME STEP  77 IN STRESS PERIOD    2
                    SECONDS     MINUTES      HOURS       DAYS        YEARS
                    -----------------------------------------------------------
   TIME STEP LENGTH  86400.      1440.0      24.000      1.0000     2.73785E-03
 STRESS PERIOD TIME 6.65280E+06 1.10880E+05  1848.0      77.000     0.21081    
         TOTAL TIME 6.73920E+06 1.12320E+05  1872.0      78.000     0.21355    
1
 
 SOLVING FOR HEAD 

 OUTPUT CONTROL FOR STRESS PERIOD    2   TIME STEP  78
    SAVE HEAD FOR ALL LAYERS
    SAVE DRAWDOWN FOR ALL LAYERS
    SAVE BUDGET
    PRINT HEAD FOR ALL LAYERS
    PRINT BUDGET
 UBDSV1 SAVING "         STORAGE" ON UNIT  53 AT TIME STEP 78, STRESS PERIOD   2
 UBDSV2 SAVING "   CONSTANT HEAD" ON UNIT  53 AT TIME STEP 78, STRESS PERIOD   2
 UBDSV1 SAVING "FLOW RIGHT FACE " ON UNIT  53 AT TIME STEP 78, STRESS PERIOD   2
 UBDSV1 SAVING "FLOW FRONT FACE " ON UNIT  53 AT TIME STEP 78, STRESS PERIOD   2
1
              HEAD IN LAYER   1 AT END OF TIME STEP  78 IN STRESS PERIOD    2
  ---------------------------------------------------------------------------

            1           2           3           4           5           6           7           8           9          10
           11          12          13          14          15          16          17          18          19          20
           21          22          23          24          25          26          27          28          29          30
           31          32          33          34          35          36          37          38          39          40
           41          42          43          44          45          46          47          48          49          50
 ........................................................................................................................
   1    10.00       9.950       9.901       9.842       9.796       9.757       9.705       9.634       9.555       9.484    
        9.325       9.127       8.980       8.817       8.643       8.468       8.305       8.119       7.869       7.621    
        7.451       7.258       7.004       6.746       6.516       6.316       6.032       5.772       5.590       5.399    
        5.236       5.132       5.021       4.895       4.775       4.626       4.466       4.249       4.001       3.729    
        3.377       3.018       2.544       2.026       1.635       1.353       1.142      0.9010      0.5290       0.000    
   2    10.00       9.945       9.892       9.842       9.803       9.766       9.708       9.635       9.563       9.466    
        9.311       9.133       8.968       8.820       8.659       8.478       8.285       8.092       7.860       7.609    
        7.425       7.266       6.994       6.715       6.510       6.284       6.009       5.762       5.552       5.372    
        5.235       5.139       5.046       4.912       4.771       4.623       4.439       4.237       3.996       3.686    
        3.357       3.051       2.555       2.040       1.694       1.443       1.200      0.9306      0.5620       0.000    
   3    10.00       9.936       9.892       9.857       9.820       9.781       9.719       9.632       9.544       9.439    
        9.298       9.140       8.981       8.831       8.640       8.412       8.223       8.057       7.842       7.623    
        7.434       7.207       6.937       6.691       6.468       6.215       5.950       5.705       5.489       5.357    
        5.246       5.155       5.062       4.915       4.766       4.608       4.426       4.200       3.930       3.693    
        3.402       2.986       2.502       2.133       1.839       1.548       1.250      0.9432      0.5328       0.000    
   4    10.00       9.936       9.897       9.866       9.840       9.798       9.727       9.626       9.523       9.417    
        9.283       9.141       8.982       8.793       8.557       8.345       8.210       8.023       7.815       7.644    
        7.383       7.094       6.857       6.638       6.422       6.118       5.824       5.628       5.484       5.371    
        5.273       5.178       5.075       4.904       4.720       4.577       4.384       4.149       3.921       3.714    
        3.384       2.925       2.560       2.250       1.935       1.605       1.246      0.8876      0.4551       0.000    
   5    10.00       9.941       9.905       9.874       9.851       9.808       9.732       9.617       9.502       9.396    
        9.281       9.135       8.930       8.708       8.508       8.341       8.172       7.996       7.802       7.559    
        7.255       7.016       6.820       6.598       6.320       6.003       5.763       5.625       5.507       5.392    
        5.278       5.162       5.045       4.878       4.691       4.517       4.344       4.161       3.955       3.682    
        3.308       2.959       2.648       2.336       1.993       1.609       1.158      0.7469      0.3869       0.000    
   6    10.00       9.951       9.916       9.885       9.853       9.806       9.725       9.601       9.500       9.386    
        9.258       9.076       8.850       8.665       8.481       8.289       8.116       7.959       7.741       7.463    
        7.194       6.966       6.764       6.489       6.186       5.948       5.755       5.627       5.493       5.374    
        5.274       5.147       5.000       4.828       4.646       4.498       4.349       4.183       3.966       3.672    
        3.347       3.011       2.694       2.379       2.007       1.542       1.057      0.7018      0.3614       0.000    
   7    10.00       9.958       9.926       9.895       9.860       9.803       9.694       9.574       9.469       9.328    
        9.196       9.001       8.796       8.605       8.414       8.219       8.050       7.905       7.653       7.357    
        7.113       6.880       6.655       6.388       6.132       5.916       5.747       5.591       5.447       5.356    
        5.254       5.112       4.957       4.786       4.630       4.499       4.360       4.192       3.971       3.705    
        3.383       3.038       2.710       2.363       1.995       1.508       1.010      0.6679      0.3162       0.000    
   8    10.00       9.965       9.937       9.902       9.862       9.770       9.637       9.523       9.390       9.256    
        9.108       8.908       8.733       8.538       8.324       8.131       7.985       7.811       7.571       7.284    
        7.000       6.786       6.599       6.324       6.057       5.864       5.672       5.502       5.406       5.317    
        5.193       5.052       4.922       4.774       4.615       4.480       4.375       4.248       4.034       3.731    
        3.378       3.073       2.767       2.364       1.955       1.411      0.9356      0.6539      0.3027       0.000    
   9    10.00       9.972       9.941       9.901       9.833       9.711       9.569       9.435       9.318       9.179    
        9.005       8.827       8.652       8.463       8.242       8.062       7.924       7.717       7.480       7.184    
        6.939       6.726       6.458       6.174       5.948       5.776       5.585       5.445       5.352       5.250    
        5.137       5.012       4.889       4.759       4.624       4.499       4.396       4.284       4.063       3.734    
        3.412       3.142       2.821       2.434       1.829       1.215      0.8911      0.5527      0.2108       0.000    
  10    10.00       9.972       9.939       9.884       9.779       9.633       9.474       9.370       9.260       9.094    
        8.942       8.765       8.591       8.386       8.179       8.018       7.830       7.616       7.364       7.125    
        6.883       6.553       6.276       6.054       5.863       5.707       5.531       5.390       5.297       5.215    
        5.098       4.962       4.853       4.735       4.615       4.532       4.430       4.300       4.047       3.723    
        3.472       3.236       2.868       2.285       1.584       1.140      0.8080      0.4935      0.2463       0.000    
  11    10.00       9.972       9.928       9.842       9.723       9.560       9.419       9.331       9.199       9.058    
        8.911       8.725       8.515       8.295       8.122       7.946       7.769       7.539       7.294       7.058    
        6.709       6.391       6.172       5.973       5.788       5.615       5.446       5.338       5.262       5.180    
        5.045       4.920       4.831       4.727       4.632       4.540       4.424       4.283       4.046       3.788    
        3.525       3.217       2.817       2.173       1.518       1.070      0.7567      0.5743      0.3173       0.000    
  12    10.00       9.970       9.908       9.796       9.641       9.478       9.366       9.278       9.162       9.035    
        8.873       8.675       8.463       8.269       8.092       7.898       7.694       7.456       7.207       6.883    
        6.538       6.298       6.082       5.878       5.674       5.502       5.386       5.307       5.208       5.099    
        4.979       4.890       4.812       4.732       4.650       4.556       4.434       4.265       4.047       3.815    
        3.534       3.199       2.651       1.926       1.369       1.054      0.8396      0.6092      0.3474       0.000    
  13    10.00       9.959       9.863       9.710       9.547       9.407       9.317       9.239       9.140       9.017    
        8.845       8.638       8.444       8.288       8.083       7.843       7.605       7.347       7.068       6.752    
        6.450       6.189       5.954       5.742       5.546       5.422       5.351       5.235       5.108       5.011    
        4.936       4.868       4.798       4.733       4.654       4.573       4.464       4.271       4.050       3.776    
        3.452       3.028       2.392       1.805       1.400       1.132      0.8823      0.6106      0.3018       0.000    
  14    10.00       9.925       9.787       9.618       9.467       9.356       9.295       9.224       9.129       8.992    
        8.803       8.626       8.467       8.303       8.070       7.786       7.530       7.237       6.928       6.598    
        6.305       6.044       5.813       5.604       5.453       5.368       5.279       5.138       5.031       4.959    
        4.907       4.842       4.785       4.724       4.653       4.589       4.461       4.263       4.030       3.688    
        3.308       2.807       2.318       1.891       1.489       1.175      0.8977      0.6110      0.2723       0.000    
  15    10.00       9.860       9.706       9.554       9.433       9.348       9.281       9.213       9.118       8.991    
        8.823       8.650       8.492       8.260       7.985       7.712       7.427       7.125       6.756       6.405    
        6.134       5.882       5.665       5.508       5.395       5.306       5.195       5.064       4.977       4.927    
        4.866       4.814       4.771       4.713       4.648       4.579       4.441       4.255       3.960       3.592    
        3.199       2.751       2.356       1.917       1.579       1.244      0.9090      0.6054      0.2485       0.000    
  16    10.00       9.837       9.669       9.530       9.426       9.348       9.278       9.216       9.124       8.992    
        8.833       8.667       8.470       8.174       7.872       7.645       7.363       6.958       6.538       6.214    
        5.936       5.727       5.551       5.418       5.293       5.213       5.090       4.985       4.920       4.863    
        4.820       4.789       4.745       4.690       4.632       4.552       4.425       4.199       3.879       3.547    
        3.212       2.784       2.341       1.955       1.637       1.286      0.9068      0.5429      0.2045       0.000    
  17    10.00       9.815       9.646       9.534       9.441       9.362       9.294       9.223       9.123       8.999    
        8.851       8.641       8.370       8.050       7.796       7.581       7.235       6.778       6.353       6.042    
        5.820       5.588       5.392       5.249       5.147       5.045       4.939       4.875       4.823       4.795    
        4.783       4.754       4.708       4.655       4.594       4.507       4.358       4.161       3.905       3.560    
        3.180       2.730       2.322       1.981       1.656       1.295      0.9262      0.5658      0.2394       0.000    
  18    10.00       9.804       9.645       9.549       9.464       9.388       9.320       9.235       9.136       9.003    
        8.824       8.574       8.273       8.002       7.753       7.436       7.034       6.617       6.243       5.938    
        5.665       5.367       5.198       5.080       4.991       4.874       4.807       4.752       4.720       4.730    
        4.728       4.703       4.658       4.600       4.537       4.445       4.305       4.147       3.926       3.610    
        3.119       2.640       2.307       1.983       1.707       1.329      0.9219      0.5555      0.2395       0.000    
  19    10.00       9.812       9.680       9.581       9.491       9.414       9.334       9.254       9.163       9.008    
        8.798       8.531       8.233       7.931       7.600       7.256       6.885       6.484       6.107       5.783    
        5.466       5.208       5.074       4.984       4.856       4.754       4.697       4.646       4.639       4.645    
        4.654       4.642       4.589       4.537       4.487       4.418       4.288       4.116       3.895       3.524    
        3.030       2.625       2.294       1.976       1.666       1.276      0.8865      0.5526      0.2606       0.000    
  20    10.00       9.823       9.710       9.622       9.536       9.445       9.350       9.264       9.172       9.014    
        8.785       8.507       8.160       7.767       7.388       7.108       6.735       6.305       5.975       5.655    
        5.372       5.159       4.997       4.858       4.696       4.624       4.587       4.563       4.569       4.570    
        4.578       4.557       4.516       4.489       4.450       4.382       4.232       4.061       3.809       3.394    
        2.969       2.646       2.265       1.902       1.564       1.179      0.8895      0.5491      0.2437       0.000    
  21    10.00       9.848       9.747       9.659       9.563       9.477       9.372       9.278       9.178       9.000    
        8.752       8.411       7.977       7.519       7.168       6.913       6.564       6.251       5.942       5.595    
        5.327       5.091       4.888       4.624       4.489       4.453       4.397       4.437       4.473       4.470    
        4.467       4.442       4.440       4.430       4.402       4.310       4.166       4.019       3.652       3.221    
        2.905       2.556       2.166       1.828       1.469       1.131      0.8055      0.4837      0.2432       0.000    
  22    10.00       9.881       9.774       9.678       9.586       9.504       9.385       9.263       9.146       8.962    
        8.658       8.229       7.740       7.311       7.010       6.747       6.481       6.255       5.915       5.575    
        5.293       4.955       4.589       4.314       4.213       4.114       4.127       4.234       4.274       4.294    
        4.313       4.313       4.342       4.364       4.339       4.247       4.107       3.833       3.416       3.141    
        2.801       2.425       2.074       1.748       1.442       1.042      0.6991      0.4637      0.2608       0.000    
  23    10.00       9.882       9.780       9.693       9.596       9.487       9.352       9.241       9.138       8.906    
        8.533       8.072       7.627       7.253       6.945       6.722       6.472       6.176       5.851       5.579    
        5.187       4.692       4.301       4.021       3.610       3.610       3.829       3.950       4.039       4.126    
        4.165       4.199       4.240       4.276       4.255       4.165       3.960       3.648       3.311       2.973    
        2.647       2.335       1.997       1.741       1.354      0.9468      0.6798      0.4457      0.2316       0.000    
  24    10.00       9.908       9.792       9.678       9.565       9.440       9.318       9.224       9.108       8.834    
        8.409       7.975       7.606       7.279       6.985       6.692       6.387       6.118       5.860       5.542    
        5.073       4.582       4.118       3.272       2.371       2.894       3.397       3.690       3.855       3.991    
        4.065       4.114       4.163       4.179       4.155       4.038       3.810       3.556       3.188       2.829    
        2.575       2.276       1.956       1.628       1.212      0.8782      0.6535      0.4173      0.1842       0.000    
  25    10.00       9.900       9.765       9.626       9.494       9.380       9.287       9.192       9.049       8.765    
        8.319       7.914       7.631       7.326       6.986       6.682       6.396       6.161       5.921       5.511    
        4.974       4.491       3.749       2.377     -0.4841       2.273       3.067       3.532       3.777       3.919    
        4.005       4.063       4.104       4.108       4.070       3.937       3.694       3.397       3.097       2.797    
        2.508       2.184       1.820       1.472       1.078      0.8057      0.6500      0.4051      0.1502       0.000    
  26    10.00       9.874       9.701       9.544       9.438       9.346       9.254       9.138       8.969       8.618    
        8.204       7.921       7.649       7.345       7.026       6.734       6.464       6.230       5.928       5.492    
        5.020       4.486       3.836       3.093       2.411       2.768       3.241       3.567       3.767       3.898    
        3.979       4.038       4.064       4.055       3.996       3.833       3.559       3.319       3.080       2.757    
        2.458       2.092       1.674       1.301      0.9789      0.7875      0.6140      0.3604      0.1534       0.000    
  27    10.00       9.847       9.662       9.516       9.426       9.306       9.185       9.038       8.812       8.480    
        8.187       7.936       7.660       7.364       7.051       6.819       6.632       6.314       5.933       5.488    
        5.088       4.700       4.175       3.684       3.296       3.353       3.533       3.693       3.820       3.913    
        3.997       4.046       4.053       4.023       3.938       3.749       3.531       3.321       3.042       2.738    
        2.429       1.987       1.509       1.158      0.9335      0.7738      0.5832      0.3805      0.1836       0.000    
  28    10.00       9.827       9.692       9.528       9.375       9.228       9.094       8.920       8.696       8.438    
        8.197       7.973       7.699       7.368       7.089       6.901       6.692       6.344       5.902       5.510    
        5.225       4.934       4.519       4.135       3.887       3.804       3.796       3.844       3.925       4.002    
        4.056       4.068       4.058       4.006       3.892       3.720       3.544       3.294       3.004       2.697    
        2.319       1.902       1.427       1.080      0.9228      0.7701      0.6007      0.3972      0.1842       0.000    
  29    10.00       9.833       9.664       9.491       9.309       9.167       9.015       8.822       8.632       8.427    
        8.212       7.990       7.724       7.445       7.205       6.982       6.704       6.318       5.915       5.609    
        5.365       5.108       4.767       4.424       4.221       4.110       4.040       4.037       4.076       4.102    
        4.105       4.098       4.069       3.995       3.862       3.712       3.547       3.313       2.991       2.602    
        2.255       1.812       1.337       1.064      0.9256      0.7753      0.5959      0.3878      0.1929       0.000    
  30    10.00       9.808       9.639       9.431       9.246       9.115       8.953       8.783       8.637       8.453    
        8.233       7.994       7.751       7.528       7.314       7.063       6.710       6.351       6.027       5.734    
        5.523       5.268       4.957       4.658       4.414       4.316       4.251       4.226       4.203       4.181    
        4.155       4.130       4.080       3.982       3.858       3.737       3.571       3.270       2.870       2.470    
        2.116       1.707       1.346       1.093      0.9465      0.7769      0.5852      0.4063      0.1994       0.000    
  31    10.00       9.783       9.588       9.388       9.222       9.086       8.933       8.782       8.637       8.459    
        8.241       8.001       7.792       7.607       7.407       7.125       6.776       6.461       6.205       5.944    
        5.718       5.430       5.123       4.871       4.622       4.463       4.399       4.337       4.291       4.243    
        4.209       4.158       4.087       3.989       3.867       3.731       3.467       3.129       2.794       2.401    
        2.066       1.658       1.305       1.121      0.9638      0.8041      0.6047      0.4066      0.1928       0.000    
  32    10.00       9.767       9.557       9.386       9.245       9.110       8.950       8.779       8.603       8.436    
        8.222       8.014       7.828       7.625       7.440       7.201       6.929       6.692       6.427       6.156    
        5.928       5.659       5.348       5.076       4.818       4.592       4.507       4.426       4.360       4.294    
        4.243       4.194       4.097       3.972       3.856       3.666       3.337       3.016       2.720       2.361    
        1.969       1.587       1.326       1.184       1.013      0.8108      0.5999      0.3862      0.1927       0.000    
  33    10.00       9.760       9.580       9.443       9.303       9.146       8.954       8.765       8.577       8.385    
        8.208       8.033       7.850       7.657       7.451       7.265       7.066       6.864       6.647       6.382    
        6.117       5.864       5.601       5.284       4.966       4.710       4.582       4.501       4.421       4.336    
        4.275       4.203       4.098       3.976       3.806       3.542       3.203       2.930       2.641       2.222    
        1.864       1.612       1.404       1.235       1.039      0.8264      0.5681      0.3397      0.1531       0.000    
  34    10.00       9.782       9.634       9.506       9.351       9.159       8.957       8.736       8.530       8.370    
        8.211       8.052       7.886       7.687       7.505       7.326       7.154       6.992       6.785       6.516    
        6.265       6.035       5.776       5.447       5.098       4.812       4.645       4.551       4.459       4.365    
        4.282       4.205       4.099       3.946       3.739       3.413       3.081       2.831       2.487       2.115    
        1.892       1.725       1.524       1.306       1.049      0.7496      0.4592      0.2721      0.1128       0.000    
  35    10.00       9.818       9.686       9.556       9.390       9.174       8.944       8.699       8.503       8.366    
        8.259       8.100       7.917       7.705       7.512       7.385       7.258       7.093       6.879       6.622    
        6.383       6.156       5.916       5.548       5.155       4.883       4.700       4.590       4.484       4.376    
        4.292       4.200       4.075       3.877       3.556       3.215       2.992       2.729       2.375       2.149    
        1.992       1.802       1.600       1.388       1.061      0.6378      0.3529      0.2321      0.1178       0.000    
  36    10.00       9.840       9.725       9.601       9.425       9.170       8.890       8.660       8.519       8.412    
        8.268       8.087       7.920       7.734       7.564       7.437       7.317       7.171       7.002       6.765    
        6.517       6.276       5.983       5.590       5.201       4.925       4.751       4.622       4.492       4.380    
        4.287       4.169       3.972       3.679       3.385       3.146       2.934       2.658       2.373       2.222    
        2.062       1.892       1.688       1.413      0.9691      0.5376      0.3317      0.2124      0.1092       0.000    
  37    10.00       9.857       9.768       9.635       9.401       9.123       8.876       8.697       8.580       8.452    
        8.267       8.074       7.930       7.769       7.612       7.491       7.381       7.246       7.067       6.863    
        6.660       6.398       6.034       5.663       5.295       4.984       4.776       4.615       4.498       4.376    
        4.257       4.086       3.794       3.524       3.313       3.106       2.885       2.667       2.461       2.291    
        2.137       1.945       1.714       1.353      0.8896      0.5193      0.3112      0.1978      9.9235E-02   0.000    
  38    10.00       9.878       9.772       9.626       9.385       9.099       8.890       8.757       8.636       8.487    
        8.291       8.088       7.947       7.799       7.643       7.523       7.428       7.311       7.137       6.960    
        6.773       6.477       6.066       5.666       5.309       5.006       4.781       4.603       4.486       4.373    
        4.206       3.927       3.665       3.491       3.280       3.074       2.913       2.726       2.537       2.373    
        2.191       1.930       1.636       1.244      0.7834      0.4987      0.3509      0.2187      9.8134E-02   0.000    
  39    10.00       9.878       9.757       9.605       9.372       9.113       8.925       8.807       8.660       8.497    
        8.338       8.133       7.971       7.832       7.682       7.554       7.448       7.335       7.196       7.035    
        6.823       6.510       6.089       5.644       5.276       4.996       4.744       4.563       4.467       4.361    
        4.112       3.816       3.645       3.446       3.249       3.100       2.964       2.793       2.609       2.455    
        2.192       1.821       1.474       1.050      0.7003      0.5409      0.4028      0.2623      0.1349       0.000    
  40    10.00       9.868       9.763       9.608       9.395       9.178       8.995       8.840       8.666       8.516    
        8.397       8.200       7.997       7.855       7.716       7.574       7.457       7.367       7.246       7.060    
        6.819       6.463       6.037       5.620       5.243       4.953       4.672       4.528       4.443       4.303    
        4.077       3.847       3.616       3.408       3.266       3.136       3.006       2.847       2.676       2.474    
        2.118       1.713       1.336      0.9921      0.7520      0.5876      0.4499      0.3176      0.1560       0.000    
  41    10.00       9.887       9.802       9.653       9.433       9.208       9.035       8.896       8.727       8.548    
        8.408       8.230       8.043       7.909       7.749       7.578       7.476       7.382       7.229       7.030    
        6.783       6.439       6.013       5.605       5.229       4.844       4.582       4.502       4.411       4.305    
        4.123       3.847       3.613       3.445       3.303       3.186       3.043       2.889       2.713       2.399    
        1.981       1.585       1.257       1.003      0.7949      0.6423      0.4950      0.3498      0.1842       0.000    
  42    10.00       9.915       9.823       9.680       9.492       9.278       9.083       8.941       8.789       8.594    
        8.415       8.245       8.088       7.960       7.793       7.611       7.490       7.362       7.197       6.973    
        6.694       6.318       5.949       5.546       5.058       4.712       4.570       4.507       4.428       4.312    
        4.099       3.857       3.637       3.467       3.351       3.225       3.098       2.932       2.652       2.235    
        1.869       1.573       1.287      0.9993      0.8060      0.6763      0.5349      0.3646      0.2023       0.000    
  43    10.00       9.934       9.835       9.689       9.505       9.328       9.155       8.996       8.811       8.612    
        8.448       8.278       8.122       8.004       7.849       7.647       7.488       7.343       7.118       6.832    
        6.559       6.199       5.855       5.397       4.936       4.705       4.591       4.518       4.442       4.320    
        4.118       3.896       3.683       3.515       3.404       3.279       3.113       2.876       2.467       2.097    
        1.867       1.605       1.303       1.004      0.7991      0.6789      0.5698      0.3948      0.1850       0.000    
  44    10.00       9.927       9.843       9.692       9.525       9.399       9.226       9.013       8.804       8.639    
        8.477       8.308       8.171       8.048       7.869       7.657       7.476       7.303       7.037       6.748    
        6.420       6.058       5.695       5.236       4.888       4.715       4.618       4.553       4.470       4.317    
        4.109       3.931       3.743       3.586       3.472       3.304       3.084       2.744       2.326       2.079    
        1.869       1.594       1.293       1.020      0.8104      0.6817      0.5707      0.3871      0.1706       0.000    
  45    10.00       9.912       9.812       9.691       9.570       9.410       9.231       9.030       8.822       8.658    
        8.491       8.339       8.219       8.081       7.887       7.661       7.457       7.261       6.974       6.632    
        6.253       5.869       5.476       5.136       4.894       4.747       4.653       4.584       4.481       4.356    
        4.175       3.972       3.804       3.644       3.484       3.306       3.064       2.700       2.336       2.048    
        1.807       1.548       1.266       1.020      0.8371      0.7299      0.5639      0.3357      0.1531       0.000    
  46    10.00       9.894       9.791       9.695       9.560       9.378       9.205       9.042       8.839       8.664    
        8.517       8.375       8.255       8.092       7.887       7.686       7.469       7.212       6.901       6.528    
        6.082       5.698       5.383       5.123       4.939       4.809       4.694       4.602       4.520       4.380    
        4.189       4.014       3.850       3.668       3.509       3.336       3.064       2.645       2.261       2.004    
        1.776       1.527       1.261       1.045      0.9020      0.7641      0.5122      0.2518      0.1095       0.000    
  47    10.00       9.888       9.784       9.652       9.495       9.347       9.198       9.022       8.838       8.682    
        8.547       8.421       8.254       8.078       7.894       7.700       7.465       7.164       6.872       6.419    
        5.932       5.631       5.359       5.155       4.983       4.857       4.743       4.631       4.536       4.392    
        4.193       4.019       3.855       3.683       3.543       3.336       2.958       2.581       2.259       1.984    
        1.784       1.548       1.310       1.101      0.9249      0.7022      0.4222      0.2207      9.1901E-02   0.000    
  48    10.00       9.876       9.751       9.611       9.469       9.337       9.187       9.026       8.856       8.702    
        8.566       8.419       8.239       8.057       7.877       7.685       7.461       7.178       6.813       6.363    
        5.941       5.632       5.366       5.179       5.040       4.886       4.770       4.677       4.559       4.364    
        4.169       4.001       3.849       3.721       3.538       3.265       2.904       2.563       2.258       2.015    
        1.799       1.574       1.360       1.124      0.8591      0.5716      0.3614      0.2143      9.6844E-02   0.000    
  49    10.00       9.865       9.729       9.592       9.476       9.339       9.180       9.022       8.885       8.726    
        8.563       8.379       8.202       8.050       7.845       7.659       7.472       7.156       6.795       6.437    
        5.991       5.646       5.382       5.218       5.055       4.889       4.799       4.712       4.526       4.290    
        4.123       3.988       3.877       3.711       3.500       3.255       2.893       2.552       2.312       2.054    
        1.800       1.593       1.364       1.086      0.7616      0.5101      0.3617      0.2335      0.1198       0.000    
  50    10.00       9.870       9.734       9.595       9.468       9.334       9.193       9.037       8.893       8.751    
        8.551       8.359       8.197       7.994       7.786       7.643       7.465       7.220       6.863       6.508    
        6.054       5.620       5.390       5.224       5.055       4.920       4.812       4.695       4.475       4.252    
        4.113       4.001       3.872       3.700       3.504       3.270       2.903       2.554       2.321       2.088    
        1.847       1.585       1.328       1.030      0.7102      0.5221      0.3893      0.2639      0.1591       0.000    

 HEAD WILL BE SAVED ON UNIT   51 AT END OF TIME STEP  78, STRESS PERIOD    2

 DRAWDOWN WILL BE SAVED ON UNIT   52 AT END OF TIME STEP  78, STRESS PERIOD    2
1
  VOLUMETRIC BUDGET FOR ENTIRE MODEL AT END OF TIME STEP 78 IN STRESS PERIOD   2
  ------------------------------------------------------------------------------

     CUMULATIVE VOLUMES      L**3       RATES FOR THIS TIME STEP      L**3/T
     ------------------                 ------------------------

           IN:                                      IN:
           ---                                      ---
             STORAGE =       37793.8398               STORAGE =         447.6272
       CONSTANT HEAD =       30481.8340         CONSTANT HEAD =         416.2979
               WELLS =           0.0000                 WELLS =           0.0000

            TOTAL IN =       68275.6719              TOTAL IN =         863.9252

          OUT:                                     OUT:
          ----                                     ----
             STORAGE =       1.1143E-02               STORAGE =           0.0000
       CONSTANT HEAD =       29275.6582         CONSTANT HEAD =         363.9249
               WELLS =       39000.0000                 WELLS =         500.0000

           TOTAL OUT =       68275.6719             TOTAL OUT =         863.9249

            IN - OUT =           0.0000              IN - OUT =       2.4414E-04

 PERCENT DISCREPANCY =           0.00     PERCENT DISCREPANCY =           0.00






          TIME SUMMARY AT END OF TIME STEP  78 IN STRESS PERIOD    2
                    SECONDS     MINUTES      HOURS       DAYS        YEARS
                    -----------------------------------------------------------
   TIME STEP LENGTH  86400.      1440.0      24.000      1.0000     2.73785E-03
 STRESS PERIOD TIME 6.73920E+06 1.12320E+05  1872.0      78.000     0.21355    
         TOTAL TIME 6.82560E+06 1.13760E+05  1896.0      79.000     0.21629    
1
 
 SOLVING FOR HEAD 

 OUTPUT CONTROL FOR STRESS PERIOD    2   TIME STEP  79
    SAVE HEAD FOR ALL LAYERS
    SAVE DRAWDOWN FOR ALL LAYERS
    SAVE BUDGET
    PRINT HEAD FOR ALL LAYERS
    PRINT BUDGET
 UBDSV1 SAVING "         STORAGE" ON UNIT  53 AT TIME STEP 79, STRESS PERIOD   2
 UBDSV2 SAVING "   CONSTANT HEAD" ON UNIT  53 AT TIME STEP 79, STRESS PERIOD   2
 UBDSV1 SAVING "FLOW RIGHT FACE " ON UNIT  53 AT TIME STEP 79, STRESS PERIOD   2
 UBDSV1 SAVING "FLOW FRONT FACE " ON UNIT  53 AT TIME STEP 79, STRESS PERIOD   2
1
              HEAD IN LAYER   1 AT END OF TIME STEP  79 IN STRESS PERIOD    2
  ---------------------------------------------------------------------------

            1           2           3           4           5           6           7           8           9          10
           11          12          13          14          15          16          17          18          19          20
           21          22          23          24          25          26          27          28          29          30
           31          32          33          34          35          36          37          38          39          40
           41          42          43          44          45          46          47          48          49          50
 ........................................................................................................................
   1    10.00       9.950       9.900       9.842       9.796       9.757       9.705       9.633       9.555       9.483    
        9.324       9.125       8.978       8.815       8.641       8.465       8.303       8.116       7.866       7.617    
        7.448       7.254       7.000       6.742       6.511       6.311       6.026       5.767       5.584       5.394    
        5.231       5.126       5.015       4.890       4.770       4.621       4.461       4.245       3.997       3.725    
        3.374       3.015       2.542       2.024       1.634       1.352       1.141      0.9002      0.5286       0.000    
   2    10.00       9.945       9.892       9.842       9.803       9.765       9.707       9.634       9.562       9.465    
        9.310       9.132       8.967       8.818       8.657       8.475       8.282       8.089       7.856       7.606    
        7.421       7.262       6.990       6.710       6.506       6.279       6.003       5.757       5.546       5.366    
        5.229       5.134       5.040       4.907       4.766       4.618       4.434       4.233       3.992       3.682    
        3.353       3.048       2.552       2.038       1.692       1.442       1.199      0.9298      0.5615       0.000    
   3    10.00       9.936       9.891       9.857       9.819       9.780       9.718       9.631       9.543       9.438    
        9.296       9.139       8.979       8.829       8.637       8.409       8.220       8.053       7.839       7.619    
        7.430       7.202       6.933       6.686       6.463       6.210       5.944       5.700       5.483       5.351    
        5.241       5.150       5.056       4.909       4.761       4.603       4.421       4.195       3.926       3.689    
        3.399       2.983       2.499       2.131       1.837       1.547       1.249      0.9424      0.5323       0.000    
   4    10.00       9.936       9.897       9.865       9.840       9.798       9.726       9.626       9.522       9.416    
        9.282       9.140       8.980       8.790       8.554       8.342       8.207       8.019       7.812       7.640    
        7.379       7.089       6.853       6.633       6.417       6.112       5.818       5.622       5.478       5.366    
        5.267       5.172       5.069       4.898       4.715       4.572       4.379       4.145       3.916       3.710    
        3.380       2.922       2.558       2.248       1.933       1.604       1.245      0.8869      0.4548       0.000    
   5    10.00       9.941       9.905       9.874       9.851       9.808       9.732       9.617       9.501       9.395    
        9.280       9.134       8.928       8.706       8.505       8.338       8.169       7.993       7.799       7.555    
        7.251       7.011       6.815       6.593       6.314       5.997       5.757       5.619       5.501       5.386    
        5.272       5.156       5.039       4.872       4.685       4.512       4.339       4.156       3.950       3.678    
        3.304       2.956       2.646       2.334       1.991       1.607       1.157      0.7463      0.3866       0.000    
   6    10.00       9.951       9.915       9.885       9.853       9.806       9.725       9.600       9.499       9.385    
        9.256       9.074       8.848       8.663       8.478       8.286       8.112       7.955       7.737       7.459    
        7.189       6.961       6.759       6.483       6.180       5.942       5.749       5.621       5.487       5.368    
        5.268       5.141       4.994       4.822       4.640       4.492       4.343       4.178       3.961       3.668    
        3.343       3.008       2.691       2.377       2.005       1.541       1.056      0.7012      0.3611       0.000    
   7    10.00       9.957       9.926       9.895       9.860       9.803       9.694       9.574       9.468       9.327    
        9.194       8.999       8.793       8.603       8.411       8.215       8.046       7.901       7.649       7.353    
        7.108       6.874       6.649       6.382       6.126       5.910       5.740       5.584       5.440       5.350    
        5.247       5.106       4.950       4.780       4.624       4.493       4.355       4.187       3.966       3.701    
        3.379       3.035       2.707       2.360       1.993       1.507       1.009      0.6673      0.3159       0.000    
   8    10.00       9.965       9.937       9.902       9.862       9.769       9.636       9.522       9.389       9.254    
        9.106       8.906       8.731       8.535       8.321       8.128       7.981       7.807       7.567       7.279    
        6.994       6.780       6.593       6.317       6.050       5.857       5.665       5.495       5.399       5.310    
        5.186       5.046       4.915       4.767       4.609       4.474       4.369       4.243       4.029       3.726    
        3.374       3.069       2.764       2.362       1.953       1.409      0.9347      0.6533      0.3024       0.000    
   9    10.00       9.972       9.941       9.901       9.833       9.710       9.568       9.433       9.317       9.177    
        9.003       8.824       8.649       8.460       8.238       8.058       7.919       7.712       7.475       7.179    
        6.933       6.719       6.451       6.167       5.941       5.768       5.578       5.438       5.345       5.242    
        5.130       5.004       4.882       4.752       4.617       4.492       4.390       4.278       4.057       3.729    
        3.407       3.138       2.818       2.431       1.827       1.213      0.8902      0.5522      0.2106       0.000    
  10    10.00       9.972       9.939       9.883       9.778       9.632       9.473       9.369       9.258       9.092    
        8.939       8.762       8.587       8.382       8.175       8.013       7.825       7.611       7.359       7.119    
        6.877       6.546       6.269       6.046       5.855       5.699       5.523       5.382       5.289       5.207    
        5.090       4.954       4.845       4.727       4.608       4.525       4.424       4.294       4.042       3.718    
        3.468       3.232       2.865       2.282       1.583       1.138      0.8072      0.4930      0.2460       0.000    
  11    10.00       9.972       9.928       9.841       9.722       9.558       9.418       9.330       9.197       9.056    
        8.909       8.722       8.512       8.291       8.117       7.941       7.764       7.533       7.288       7.052    
        6.702       6.383       6.164       5.965       5.780       5.607       5.438       5.330       5.254       5.172    
        5.037       4.912       4.824       4.719       4.625       4.532       4.418       4.277       4.040       3.783    
        3.521       3.213       2.814       2.171       1.517       1.069      0.7559      0.5737      0.3170       0.000    
  12    10.00       9.970       9.907       9.796       9.640       9.477       9.364       9.276       9.160       9.032    
        8.870       8.672       8.460       8.265       8.087       7.893       7.688       7.450       7.201       6.876    
        6.530       6.290       6.074       5.870       5.666       5.494       5.377       5.298       5.200       5.091    
        4.971       4.881       4.804       4.724       4.642       4.549       4.427       4.259       4.041       3.810    
        3.529       3.195       2.648       1.924       1.367       1.052      0.8387      0.6085      0.3471       0.000    
  13    10.00       9.959       9.862       9.709       9.546       9.405       9.315       9.237       9.138       9.014    
        8.842       8.635       8.440       8.284       8.078       7.838       7.599       7.341       7.062       6.744    
        6.442       6.181       5.946       5.734       5.537       5.413       5.342       5.227       5.099       5.002    
        4.928       4.859       4.790       4.724       4.646       4.565       4.457       4.264       4.043       3.771    
        3.447       3.024       2.389       1.803       1.399       1.131      0.8813      0.6099      0.3015       0.000    
  14    10.00       9.925       9.786       9.617       9.465       9.354       9.293       9.222       9.126       8.990    
        8.800       8.622       8.463       8.299       8.065       7.781       7.524       7.231       6.921       6.591    
        6.297       6.036       5.804       5.595       5.444       5.359       5.270       5.128       5.022       4.950    
        4.898       4.833       4.776       4.715       4.645       4.581       4.453       4.256       4.024       3.683    
        3.303       2.803       2.315       1.889       1.487       1.174      0.8967      0.6103      0.2720       0.000    
  15    10.00       9.860       9.705       9.553       9.431       9.346       9.279       9.211       9.116       8.988    
        8.820       8.647       8.488       8.256       7.980       7.706       7.421       7.118       6.748       6.397    
        6.125       5.873       5.656       5.498       5.385       5.296       5.185       5.054       4.967       4.918    
        4.857       4.805       4.762       4.704       4.640       4.571       4.433       4.248       3.953       3.586    
        3.194       2.747       2.353       1.914       1.577       1.243      0.9080      0.6047      0.2482       0.000    
  16    10.00       9.836       9.668       9.529       9.424       9.346       9.276       9.214       9.121       8.989    
        8.830       8.663       8.466       8.169       7.866       7.638       7.357       6.951       6.529       6.206    
        5.927       5.718       5.541       5.408       5.283       5.203       5.081       4.975       4.911       4.853    
        4.810       4.780       4.735       4.681       4.624       4.543       4.417       4.192       3.872       3.541    
        3.207       2.780       2.338       1.952       1.635       1.284      0.9058      0.5423      0.2043       0.000    
  17    10.00       9.814       9.645       9.533       9.440       9.360       9.292       9.221       9.120       8.996    
        8.847       8.637       8.365       8.044       7.790       7.574       7.227       6.770       6.344       6.033    
        5.811       5.578       5.382       5.239       5.137       5.035       4.929       4.865       4.813       4.786    
        4.773       4.744       4.699       4.646       4.585       4.498       4.350       4.153       3.898       3.554    
        3.175       2.726       2.318       1.978       1.653       1.294      0.9252      0.5652      0.2391       0.000    
  18    10.00       9.803       9.644       9.548       9.463       9.387       9.318       9.232       9.133       9.000    
        8.821       8.570       8.268       7.996       7.747       7.429       7.026       6.609       6.234       5.928    
        5.655       5.356       5.188       5.069       4.981       4.864       4.797       4.742       4.710       4.720    
        4.718       4.694       4.649       4.590       4.527       4.436       4.296       4.139       3.919       3.603    
        3.113       2.636       2.304       1.981       1.705       1.327      0.9209      0.5549      0.2392       0.000    
  19    10.00       9.812       9.679       9.579       9.489       9.412       9.332       9.252       9.160       9.005    
        8.794       8.526       8.227       7.925       7.593       7.249       6.877       6.475       6.097       5.773    
        5.456       5.198       5.064       4.973       4.846       4.743       4.686       4.636       4.628       4.634    
        4.644       4.632       4.579       4.527       4.477       4.408       4.279       4.108       3.887       3.518    
        3.025       2.621       2.291       1.973       1.664       1.274      0.8856      0.5520      0.2604       0.000    
  20    10.00       9.822       9.709       9.621       9.534       9.443       9.348       9.262       9.169       9.011    
        8.781       8.502       8.154       7.760       7.380       7.100       6.726       6.296       5.966       5.644    
        5.362       5.148       4.986       4.847       4.685       4.613       4.577       4.552       4.558       4.560    
        4.567       4.546       4.506       4.478       4.440       4.372       4.223       4.053       3.801       3.387    
        2.964       2.642       2.262       1.900       1.562       1.177      0.8885      0.5486      0.2434       0.000    
  21    10.00       9.848       9.746       9.657       9.562       9.475       9.370       9.276       9.175       8.997    
        8.748       8.407       7.971       7.511       7.160       6.905       6.555       6.241       5.932       5.585    
        5.317       5.080       4.877       4.613       4.478       4.442       4.386       4.426       4.462       4.459    
        4.456       4.431       4.430       4.419       4.392       4.301       4.157       4.010       3.645       3.215    
        2.900       2.552       2.163       1.825       1.467       1.130      0.8047      0.4832      0.2429       0.000    
  22    10.00       9.880       9.773       9.677       9.585       9.502       9.383       9.261       9.143       8.959    
        8.654       8.224       7.733       7.303       7.002       6.738       6.472       6.245       5.905       5.564    
        5.282       4.944       4.578       4.303       4.202       4.102       4.116       4.223       4.262       4.283    
        4.301       4.302       4.331       4.354       4.328       4.237       4.097       3.825       3.409       3.135    
        2.796       2.421       2.071       1.746       1.440       1.040      0.6984      0.4632      0.2606       0.000    
  23    10.00       9.882       9.779       9.692       9.595       9.485       9.350       9.239       9.136       8.903    
        8.528       8.066       7.620       7.245       6.937       6.713       6.463       6.166       5.840       5.569    
        5.176       4.680       4.289       4.009       3.599       3.598       3.818       3.939       4.027       4.114    
        4.153       4.188       4.229       4.265       4.244       4.155       3.951       3.640       3.305       2.967    
        2.642       2.332       1.995       1.738       1.352      0.9457      0.6791      0.4453      0.2314       0.000    
  24    10.00       9.908       9.791       9.677       9.564       9.438       9.316       9.221       9.105       8.831    
        8.404       7.968       7.598       7.271       6.977       6.683       6.377       6.108       5.850       5.532    
        5.063       4.571       4.106       3.261       2.359       2.883       3.385       3.678       3.843       3.979    
        4.053       4.102       4.151       4.167       4.144       4.027       3.800       3.548       3.182       2.824    
        2.571       2.272       1.954       1.626       1.210      0.8772      0.6528      0.4169      0.1840       0.000    
  25    10.00       9.900       9.764       9.624       9.492       9.378       9.285       9.189       9.046       8.761    
        8.314       7.908       7.624       7.319       6.977       6.673       6.387       6.151       5.911       5.501    
        4.963       4.480       3.737       2.365     -0.4969       2.261       3.055       3.520       3.765       3.907    
        3.993       4.051       4.092       4.096       4.059       3.926       3.685       3.389       3.091       2.791    
        2.503       2.180       1.817       1.470       1.076      0.8048      0.6493      0.4047      0.1501       0.000    
  26    10.00       9.874       9.700       9.543       9.437       9.344       9.252       9.135       8.966       8.614    
        8.199       7.914       7.642       7.337       7.018       6.725       6.455       6.220       5.918       5.481    
        5.009       4.475       3.824       3.081       2.399       2.756       3.228       3.555       3.755       3.886    
        3.967       4.026       4.052       4.044       3.985       3.823       3.551       3.312       3.074       2.751    
        2.454       2.088       1.672       1.299      0.9776      0.7865      0.6132      0.3600      0.1533       0.000    
  27    10.00       9.846       9.661       9.514       9.425       9.304       9.183       9.035       8.809       8.476    
        8.181       7.930       7.653       7.356       7.042       6.810       6.623       6.305       5.923       5.478    
        5.077       4.689       4.164       3.673       3.285       3.341       3.521       3.681       3.808       3.901    
        3.985       4.034       4.041       4.011       3.927       3.739       3.522       3.313       3.035       2.732    
        2.425       1.984       1.506       1.156      0.9323      0.7728      0.5824      0.3801      0.1834       0.000    
  28    10.00       9.826       9.691       9.526       9.374       9.226       9.091       8.917       8.692       8.433    
        8.191       7.967       7.692       7.360       7.081       6.893       6.684       6.335       5.892       5.499    
        5.214       4.923       4.508       4.124       3.876       3.792       3.784       3.832       3.913       3.990    
        4.044       4.056       4.046       3.995       3.882       3.710       3.535       3.287       2.997       2.691    
        2.314       1.899       1.425       1.078      0.9216      0.7691      0.6000      0.3967      0.1840       0.000    
  29    10.00       9.832       9.663       9.489       9.306       9.164       9.012       8.818       8.628       8.423    
        8.207       7.985       7.718       7.438       7.197       6.974       6.695       6.309       5.905       5.599    
        5.354       5.098       4.756       4.413       4.209       4.098       4.028       4.026       4.065       4.090    
        4.093       4.087       4.057       3.984       3.852       3.702       3.538       3.305       2.984       2.596    
        2.251       1.809       1.335       1.063      0.9244      0.7743      0.5952      0.3873      0.1927       0.000    
  30    10.00       9.808       9.638       9.429       9.243       9.113       8.950       8.780       8.633       8.449    
        8.228       7.988       7.745       7.521       7.307       7.055       6.701       6.342       6.017       5.724    
        5.513       5.258       4.946       4.647       4.403       4.304       4.240       4.215       4.191       4.169    
        4.144       4.119       4.069       3.971       3.848       3.728       3.562       3.262       2.864       2.465    
        2.112       1.704       1.344       1.091      0.9453      0.7759      0.5845      0.4058      0.1992       0.000    
  31    10.00       9.783       9.586       9.387       9.219       9.083       8.929       8.779       8.633       8.454    
        8.236       7.995       7.785       7.600       7.400       7.117       6.767       6.453       6.196       5.934    
        5.708       5.420       5.112       4.860       4.611       4.452       4.388       4.326       4.280       4.232    
        4.198       4.148       4.076       3.979       3.858       3.721       3.458       3.122       2.788       2.397    
        2.063       1.655       1.303       1.119      0.9626      0.8031      0.6040      0.4061      0.1926       0.000    
  32    10.00       9.766       9.555       9.384       9.243       9.108       8.947       8.776       8.599       8.431    
        8.217       8.009       7.822       7.619       7.433       7.194       6.921       6.683       6.418       6.147    
        5.919       5.649       5.337       5.066       4.807       4.582       4.496       4.415       4.350       4.283    
        4.233       4.183       4.087       3.962       3.847       3.657       3.330       3.010       2.714       2.357    
        1.966       1.585       1.324       1.183       1.011      0.8098      0.5992      0.3857      0.1925       0.000    
  33    10.00       9.760       9.579       9.442       9.301       9.144       8.951       8.761       8.573       8.381    
        8.203       8.028       7.844       7.650       7.444       7.258       7.059       6.856       6.638       6.373    
        6.107       5.854       5.591       5.274       4.956       4.699       4.571       4.491       4.410       4.326    
        4.265       4.193       4.089       3.966       3.797       3.534       3.196       2.924       2.637       2.218    
        1.861       1.610       1.402       1.233       1.037      0.8254      0.5674      0.3393      0.1529       0.000    
  34    10.00       9.781       9.633       9.505       9.349       9.157       8.954       8.733       8.526       8.366    
        8.206       8.046       7.880       7.681       7.499       7.319       7.147       6.985       6.777       6.507    
        6.256       6.026       5.766       5.437       5.088       4.802       4.635       4.541       4.449       4.355    
        4.272       4.196       4.090       3.938       3.731       3.406       3.075       2.826       2.483       2.112    
        1.890       1.723       1.522       1.305       1.048      0.7487      0.4586      0.2718      0.1127       0.000    
  35    10.00       9.817       9.685       9.554       9.388       9.172       8.941       8.696       8.499       8.362    
        8.255       8.095       7.911       7.699       7.506       7.379       7.252       7.086       6.871       6.614    
        6.374       6.147       5.907       5.539       5.145       4.873       4.690       4.580       4.474       4.366    
        4.283       4.191       4.066       3.869       3.550       3.209       2.987       2.725       2.372       2.146    
        1.989       1.800       1.598       1.386       1.060      0.6370      0.3525      0.2318      0.1177       0.000    
  36    10.00       9.839       9.724       9.600       9.423       9.168       8.887       8.656       8.515       8.408    
        8.264       8.082       7.915       7.728       7.557       7.431       7.310       7.164       6.994       6.757    
        6.509       6.268       5.974       5.580       5.192       4.915       4.742       4.613       4.483       4.371    
        4.278       4.161       3.964       3.672       3.380       3.141       2.930       2.654       2.370       2.219    
        2.060       1.889       1.686       1.412      0.9680      0.5370      0.3314      0.2122      0.1091       0.000    
  37    10.00       9.856       9.768       9.634       9.400       9.121       8.873       8.693       8.576       8.448    
        8.262       8.069       7.925       7.763       7.606       7.484       7.375       7.239       7.060       6.856    
        6.652       6.390       6.025       5.654       5.286       4.975       4.767       4.607       4.490       4.368    
        4.248       4.078       3.787       3.518       3.308       3.102       2.882       2.663       2.458       2.288    
        2.134       1.943       1.712       1.351      0.8886      0.5187      0.3109      0.1976      9.9134E-02   0.000    
  38    10.00       9.878       9.771       9.625       9.383       9.096       8.887       8.754       8.632       8.483    
        8.287       8.083       7.942       7.794       7.637       7.517       7.422       7.305       7.131       6.953    
        6.766       6.469       6.058       5.658       5.301       4.998       4.773       4.596       4.479       4.366    
        4.199       3.921       3.659       3.486       3.276       3.070       2.909       2.723       2.534       2.370    
        2.189       1.928       1.634       1.243      0.7826      0.4983      0.3506      0.2185      9.8042E-02   0.000    
  39    10.00       9.877       9.756       9.604       9.371       9.111       8.922       8.804       8.657       8.493    
        8.334       8.129       7.966       7.827       7.676       7.549       7.442       7.329       7.190       7.029    
        6.816       6.503       6.082       5.636       5.269       4.989       4.737       4.556       4.460       4.355    
        4.107       3.811       3.640       3.442       3.245       3.096       2.961       2.790       2.606       2.452    
        2.190       1.819       1.473       1.049      0.6997      0.5404      0.4024      0.2621      0.1348       0.000    
  40    10.00       9.868       9.762       9.607       9.393       9.176       8.992       8.837       8.663       8.513    
        8.394       8.196       7.992       7.850       7.711       7.568       7.451       7.361       7.240       7.054    
        6.813       6.457       6.030       5.614       5.236       4.946       4.667       4.523       4.438       4.297    
        4.072       3.842       3.612       3.404       3.263       3.132       3.003       2.843       2.673       2.471    
        2.116       1.711       1.335      0.9912      0.7513      0.5871      0.4496      0.3174      0.1559       0.000    
  41    10.00       9.886       9.802       9.652       9.432       9.207       9.033       8.894       8.724       8.545    
        8.404       8.226       8.038       7.905       7.744       7.573       7.471       7.376       7.224       7.024    
        6.778       6.433       6.007       5.599       5.224       4.839       4.578       4.497       4.407       4.301    
        4.118       3.843       3.609       3.441       3.299       3.182       3.040       2.886       2.710       2.396    
        1.979       1.584       1.256       1.002      0.7943      0.6418      0.4946      0.3495      0.1841       0.000    
  42    10.00       9.915       9.822       9.679       9.490       9.277       9.080       8.938       8.786       8.591    
        8.412       8.242       8.084       7.956       7.788       7.606       7.485       7.357       7.192       6.968    
        6.689       6.314       5.944       5.541       5.053       4.708       4.566       4.502       4.424       4.307    
        4.095       3.853       3.633       3.463       3.348       3.222       3.095       2.929       2.649       2.233    
        1.867       1.572       1.286      0.9984      0.8054      0.6757      0.5345      0.3643      0.2022       0.000    
  43    10.00       9.933       9.835       9.688       9.503       9.327       9.153       8.994       8.809       8.610    
        8.445       8.274       8.119       8.000       7.845       7.643       7.483       7.338       7.114       6.828    
        6.554       6.195       5.851       5.393       4.932       4.701       4.587       4.514       4.438       4.316    
        4.114       3.892       3.680       3.511       3.400       3.275       3.110       2.873       2.465       2.095    
        1.866       1.603       1.302       1.003      0.7985      0.6784      0.5694      0.3945      0.1849       0.000    
  44    10.00       9.926       9.843       9.691       9.524       9.397       9.224       9.011       8.802       8.637    
        8.474       8.305       8.168       8.045       7.866       7.653       7.472       7.299       7.034       6.744    
        6.416       6.055       5.691       5.232       4.884       4.711       4.615       4.549       4.466       4.314    
        4.106       3.927       3.739       3.583       3.469       3.301       3.081       2.742       2.324       2.078    
        1.868       1.593       1.292       1.019      0.8099      0.6813      0.5704      0.3868      0.1705       0.000    
  45    10.00       9.912       9.812       9.691       9.570       9.409       9.230       9.029       8.821       8.656    
        8.489       8.337       8.216       8.078       7.885       7.658       7.454       7.257       6.970       6.628    
        6.250       5.865       5.473       5.133       4.891       4.743       4.649       4.581       4.478       4.352    
        4.172       3.969       3.801       3.641       3.481       3.303       3.061       2.698       2.335       2.046    
        1.806       1.547       1.265       1.020      0.8365      0.7295      0.5636      0.3355      0.1530       0.000    
  46    10.00       9.894       9.791       9.695       9.559       9.377       9.204       9.041       8.838       8.662    
        8.515       8.373       8.253       8.090       7.884       7.683       7.466       7.209       6.898       6.526    
        6.079       5.695       5.380       5.120       4.935       4.806       4.690       4.598       4.517       4.377    
        4.186       4.011       3.847       3.665       3.506       3.334       3.062       2.643       2.260       2.002    
        1.775       1.526       1.260       1.044      0.9015      0.7637      0.5119      0.2516      0.1094       0.000    
  47    10.00       9.888       9.783       9.651       9.495       9.346       9.197       9.021       8.837       8.680    
        8.545       8.419       8.252       8.076       7.892       7.697       7.462       7.162       6.869       6.417    
        5.929       5.628       5.356       5.152       4.980       4.854       4.740       4.628       4.533       4.388    
        4.190       4.016       3.852       3.680       3.541       3.334       2.956       2.579       2.258       1.983    
        1.783       1.547       1.310       1.101      0.9244      0.7018      0.4220      0.2206      9.1854E-02   0.000    
  48    10.00       9.875       9.751       9.611       9.468       9.336       9.186       9.025       8.854       8.701    
        8.564       8.417       8.237       8.055       7.875       7.683       7.459       7.176       6.811       6.361    
        5.938       5.629       5.363       5.176       5.037       4.883       4.767       4.674       4.556       4.361    
        4.166       3.998       3.847       3.718       3.536       3.263       2.902       2.562       2.257       2.014    
        1.799       1.573       1.359       1.123      0.8587      0.5713      0.3612      0.2143      9.6799E-02   0.000    
  49    10.00       9.865       9.729       9.591       9.475       9.339       9.180       9.021       8.884       8.725    
        8.561       8.378       8.200       8.048       7.843       7.657       7.470       7.154       6.793       6.434    
        5.988       5.643       5.379       5.215       5.052       4.886       4.796       4.709       4.523       4.288    
        4.120       3.985       3.875       3.709       3.498       3.253       2.891       2.550       2.311       2.053    
        1.799       1.592       1.364       1.086      0.7612      0.5099      0.3616      0.2334      0.1197       0.000    
  50    10.00       9.870       9.734       9.594       9.467       9.333       9.192       9.036       8.891       8.750    
        8.550       8.358       8.195       7.992       7.784       7.641       7.463       7.218       6.861       6.506    
        6.052       5.618       5.388       5.221       5.052       4.917       4.810       4.692       4.473       4.249    
        4.110       3.998       3.870       3.698       3.502       3.268       2.902       2.552       2.319       2.087    
        1.846       1.585       1.328       1.030      0.7099      0.5219      0.3891      0.2637      0.1591       0.000    

 HEAD WILL BE SAVED ON UNIT   51 AT END OF TIME STEP  79, STRESS PERIOD    2

 DRAWDOWN WILL BE SAVED ON UNIT   52 AT END OF TIME STEP  79, STRESS PERIOD    2
1
  VOLUMETRIC BUDGET FOR ENTIRE MODEL AT END OF TIME STEP 79 IN STRESS PERIOD   2
  ------------------------------------------------------------------------------

     CUMULATIVE VOLUMES      L**3       RATES FOR THIS TIME STEP      L**3/T
     ------------------                 ------------------------

           IN:                                      IN:
           ---                                      ---
             STORAGE =       38240.0938               STORAGE =         446.2551
       CONSTANT HEAD =       30899.1641         CONSTANT HEAD =         417.3293
               WELLS =           0.0000                 WELLS =           0.0000

            TOTAL IN =       69139.2578              TOTAL IN =         863.5845

          OUT:                                     OUT:
          ----                                     ----
             STORAGE =       1.1143E-02               STORAGE =           0.0000
       CONSTANT HEAD =       29639.2422         CONSTANT HEAD =         363.5842
               WELLS =       39500.0000                 WELLS =         500.0000

           TOTAL OUT =       69139.2500             TOTAL OUT =         863.5842

            IN - OUT =       7.8125E-03              IN - OUT =       2.4414E-04

 PERCENT DISCREPANCY =           0.00     PERCENT DISCREPANCY =           0.00






          TIME SUMMARY AT END OF TIME STEP  79 IN STRESS PERIOD    2
                    SECONDS     MINUTES      HOURS       DAYS        YEARS
                    -----------------------------------------------------------
   TIME STEP LENGTH  86400.      1440.0      24.000      1.0000     2.73785E-03
 STRESS PERIOD TIME 6.82560E+06 1.13760E+05  1896.0      79.000     0.21629    
         TOTAL TIME 6.91200E+06 1.15200E+05  1920.0      80.000     0.21903    
1
 
 SOLVING FOR HEAD 

 OUTPUT CONTROL FOR STRESS PERIOD    2   TIME STEP  80
    SAVE HEAD FOR ALL LAYERS
    SAVE DRAWDOWN FOR ALL LAYERS
    SAVE BUDGET
    PRINT HEAD FOR ALL LAYERS
    PRINT BUDGET
 UBDSV1 SAVING "         STORAGE" ON UNIT  53 AT TIME STEP 80, STRESS PERIOD   2
 UBDSV2 SAVING "   CONSTANT HEAD" ON UNIT  53 AT TIME STEP 80, STRESS PERIOD   2
 UBDSV1 SAVING "FLOW RIGHT FACE " ON UNIT  53 AT TIME STEP 80, STRESS PERIOD   2
 UBDSV1 SAVING "FLOW FRONT FACE " ON UNIT  53 AT TIME STEP 80, STRESS PERIOD   2
1
              HEAD IN LAYER   1 AT END OF TIME STEP  80 IN STRESS PERIOD    2
  ---------------------------------------------------------------------------

            1           2           3           4           5           6           7           8           9          10
           11          12          13          14          15          16          17          18          19          20
           21          22          23          24          25          26          27          28          29          30
           31          32          33          34          35          36          37          38          39          40
           41          42          43          44          45          46          47          48          49          50
 ........................................................................................................................
   1    10.00       9.950       9.900       9.842       9.795       9.756       9.704       9.632       9.554       9.482    
        9.323       9.124       8.977       8.813       8.639       8.463       8.300       8.113       7.863       7.614    
        7.444       7.250       6.995       6.737       6.506       6.306       6.021       5.762       5.579       5.388    
        5.225       5.121       5.010       4.885       4.765       4.616       4.456       4.241       3.993       3.721    
        3.370       3.012       2.540       2.022       1.632       1.351       1.140      0.8995      0.5281       0.000    
   2    10.00       9.945       9.891       9.842       9.803       9.765       9.707       9.633       9.561       9.464    
        9.308       9.130       8.965       8.816       8.655       8.473       8.279       8.086       7.853       7.602    
        7.417       7.258       6.985       6.706       6.501       6.274       5.998       5.751       5.541       5.360    
        5.224       5.128       5.035       4.901       4.761       4.613       4.430       4.228       3.988       3.678    
        3.350       3.045       2.550       2.036       1.691       1.440       1.198      0.9290      0.5611       0.000    
   3    10.00       9.936       9.891       9.857       9.819       9.780       9.718       9.630       9.543       9.437    
        9.295       9.137       8.978       8.827       8.635       8.407       8.217       8.050       7.835       7.615    
        7.426       7.198       6.928       6.681       6.458       6.204       5.939       5.694       5.478       5.345    
        5.235       5.144       5.051       4.904       4.756       4.598       4.416       4.191       3.922       3.685    
        3.395       2.980       2.497       2.129       1.836       1.545       1.248      0.9416      0.5319       0.000    
   4    10.00       9.936       9.896       9.865       9.839       9.798       9.726       9.625       9.521       9.415    
        9.280       9.138       8.978       8.788       8.551       8.339       8.204       8.016       7.808       7.636    
        7.375       7.085       6.848       6.628       6.412       6.107       5.812       5.616       5.472       5.360    
        5.261       5.166       5.064       4.893       4.710       4.567       4.374       4.140       3.912       3.706    
        3.377       2.919       2.555       2.246       1.932       1.602       1.244      0.8861      0.4544       0.000    
   5    10.00       9.941       9.904       9.874       9.850       9.807       9.731       9.616       9.500       9.394    
        9.279       9.132       8.926       8.703       8.503       8.335       8.165       7.989       7.795       7.551    
        7.246       7.007       6.810       6.588       6.308       5.992       5.751       5.613       5.495       5.380    
        5.266       5.150       5.033       4.866       4.680       4.507       4.334       4.152       3.946       3.674    
        3.301       2.953       2.643       2.332       1.989       1.606       1.156      0.7456      0.3862       0.000    
   6    10.00       9.951       9.915       9.885       9.853       9.805       9.724       9.599       9.498       9.384    
        9.255       9.072       8.846       8.660       8.475       8.283       8.109       7.952       7.733       7.455    
        7.184       6.956       6.753       6.477       6.174       5.936       5.742       5.614       5.481       5.361    
        5.261       5.135       4.988       4.816       4.634       4.486       4.338       4.173       3.957       3.664    
        3.339       3.005       2.688       2.374       2.003       1.539       1.055      0.7005      0.3608       0.000    
   7    10.00       9.957       9.926       9.894       9.859       9.802       9.693       9.573       9.467       9.325    
        9.192       8.997       8.791       8.600       8.408       8.212       8.042       7.897       7.645       7.348    
        7.103       6.869       6.644       6.376       6.120       5.903       5.734       5.578       5.434       5.343    
        5.241       5.099       4.944       4.774       4.618       4.487       4.349       4.181       3.961       3.697    
        3.375       3.031       2.704       2.358       1.991       1.505       1.008      0.6667      0.3157       0.000    
   8    10.00       9.964       9.937       9.902       9.861       9.769       9.635       9.521       9.387       9.253    
        9.104       8.904       8.728       8.532       8.317       8.124       7.977       7.803       7.562       7.274    
        6.988       6.775       6.587       6.311       6.043       5.850       5.658       5.488       5.392       5.303    
        5.179       5.039       4.909       4.761       4.602       4.468       4.363       4.237       4.024       3.721    
        3.370       3.065       2.761       2.359       1.951       1.408      0.9338      0.6526      0.3021       0.000    
   9    10.00       9.972       9.940       9.901       9.832       9.710       9.567       9.432       9.315       9.176    
        9.000       8.822       8.646       8.457       8.234       8.054       7.915       7.707       7.470       7.173    
        6.927       6.713       6.444       6.160       5.934       5.761       5.570       5.430       5.337       5.235    
        5.123       4.997       4.874       4.745       4.610       4.486       4.384       4.272       4.052       3.725    
        3.403       3.134       2.814       2.428       1.825       1.212      0.8893      0.5516      0.2104       0.000    
  10    10.00       9.972       9.939       9.883       9.777       9.631       9.472       9.367       9.256       9.090    
        8.937       8.759       8.584       8.378       8.171       8.009       7.820       7.605       7.353       7.113    
        6.871       6.539       6.262       6.039       5.848       5.692       5.515       5.375       5.281       5.199    
        5.082       4.947       4.838       4.720       4.601       4.518       4.417       4.288       4.036       3.713    
        3.463       3.228       2.862       2.280       1.581       1.137      0.8064      0.4925      0.2458       0.000    
  11    10.00       9.972       9.928       9.841       9.721       9.557       9.416       9.328       9.195       9.053    
        8.906       8.719       8.508       8.287       8.113       7.936       7.759       7.528       7.282       7.046    
        6.695       6.376       6.157       5.957       5.772       5.598       5.430       5.321       5.246       5.164    
        5.029       4.904       4.816       4.711       4.618       4.525       4.411       4.271       4.034       3.777    
        3.516       3.209       2.810       2.168       1.515       1.068      0.7551      0.5731      0.3167       0.000    
  12    10.00       9.969       9.907       9.795       9.639       9.475       9.363       9.274       9.158       9.030    
        8.867       8.668       8.456       8.260       8.083       7.888       7.683       7.444       7.194       6.869    
        6.523       6.282       6.066       5.862       5.657       5.485       5.369       5.290       5.191       5.082    
        4.963       4.873       4.796       4.716       4.635       4.541       4.420       4.252       4.035       3.804    
        3.524       3.190       2.644       1.922       1.366       1.051      0.8377      0.6079      0.3467       0.000    
  13    10.00       9.959       9.862       9.708       9.545       9.404       9.313       9.235       9.135       9.011    
        8.839       8.631       8.436       8.280       8.073       7.833       7.594       7.335       7.055       6.737    
        6.434       6.173       5.937       5.725       5.528       5.404       5.334       5.218       5.091       4.993    
        4.919       4.850       4.782       4.716       4.638       4.557       4.449       4.258       4.037       3.765    
        3.442       3.020       2.385       1.800       1.397       1.129      0.8803      0.6092      0.3012       0.000    
  14    10.00       9.925       9.786       9.616       9.464       9.352       9.291       9.219       9.124       8.987    
        8.797       8.619       8.459       8.295       8.060       7.776       7.518       7.224       6.914       6.583    
        6.289       6.027       5.795       5.586       5.435       5.350       5.261       5.119       5.013       4.941    
        4.889       4.824       4.768       4.707       4.637       4.573       4.445       4.249       4.017       3.677    
        3.298       2.799       2.312       1.886       1.485       1.172      0.8957      0.6097      0.2717       0.000    
  15    10.00       9.859       9.704       9.552       9.430       9.344       9.277       9.208       9.113       8.985    
        8.817       8.643       8.484       8.251       7.974       7.700       7.414       7.111       6.740       6.389    
        6.116       5.864       5.647       5.489       5.376       5.287       5.176       5.045       4.958       4.908    
        4.848       4.796       4.754       4.695       4.631       4.562       4.425       4.240       3.947       3.581    
        3.189       2.743       2.350       1.912       1.575       1.241      0.9070      0.6040      0.2480       0.000    
  16    10.00       9.836       9.667       9.528       9.422       9.344       9.274       9.211       9.119       8.986    
        8.827       8.660       8.462       8.164       7.860       7.632       7.350       6.943       6.521       6.197    
        5.918       5.708       5.532       5.398       5.273       5.193       5.071       4.965       4.901       4.844    
        4.801       4.771       4.726       4.672       4.615       4.534       4.409       4.184       3.865       3.535    
        3.202       2.776       2.335       1.950       1.633       1.283      0.9047      0.5417      0.2040       0.000    
  17    10.00       9.814       9.644       9.532       9.438       9.358       9.290       9.219       9.118       8.994    
        8.844       8.633       8.361       8.039       7.784       7.568       7.220       6.761       6.335       6.023    
        5.801       5.568       5.372       5.229       5.127       5.025       4.919       4.855       4.803       4.776    
        4.763       4.734       4.690       4.637       4.576       4.489       4.341       4.145       3.891       3.548    
        3.170       2.721       2.315       1.976       1.651       1.292      0.9241      0.5646      0.2389       0.000    
  18    10.00       9.803       9.643       9.546       9.461       9.385       9.316       9.230       9.131       8.997    
        8.817       8.566       8.264       7.991       7.740       7.422       7.018       6.600       6.225       5.918    
        5.645       5.346       5.178       5.059       4.970       4.854       4.786       4.731       4.699       4.710    
        4.708       4.684       4.639       4.581       4.518       4.427       4.288       4.131       3.911       3.597    
        3.108       2.632       2.301       1.978       1.703       1.326      0.9199      0.5543      0.2390       0.000    
  19    10.00       9.811       9.678       9.578       9.488       9.411       9.330       9.250       9.158       9.002    
        8.790       8.522       8.222       7.919       7.587       7.241       6.869       6.466       6.088       5.764    
        5.446       5.187       5.053       4.962       4.835       4.732       4.676       4.625       4.618       4.624    
        4.634       4.622       4.569       4.517       4.468       4.399       4.270       4.100       3.879       3.511    
        3.020       2.617       2.287       1.971       1.662       1.273      0.8846      0.5515      0.2601       0.000    
  20    10.00       9.821       9.708       9.620       9.533       9.441       9.346       9.259       9.167       9.008    
        8.778       8.498       8.149       7.754       7.373       7.092       6.717       6.287       5.956       5.634    
        5.352       5.138       4.976       4.837       4.674       4.602       4.566       4.541       4.547       4.549    
        4.557       4.536       4.495       4.469       4.431       4.363       4.215       4.044       3.794       3.381    
        2.959       2.638       2.258       1.897       1.560       1.176      0.8876      0.5480      0.2432       0.000    
  21    10.00       9.847       9.745       9.656       9.561       9.473       9.368       9.274       9.173       8.994    
        8.744       8.402       7.965       7.504       7.152       6.897       6.546       6.232       5.922       5.575    
        5.306       5.070       4.867       4.602       4.467       4.431       4.375       4.415       4.451       4.448    
        4.445       4.420       4.419       4.409       4.382       4.291       4.148       4.002       3.638       3.209    
        2.895       2.548       2.160       1.823       1.465       1.129      0.8038      0.4827      0.2427       0.000    
  22    10.00       9.880       9.773       9.676       9.584       9.501       9.381       9.259       9.141       8.956    
        8.650       8.218       7.727       7.296       6.994       6.729       6.462       6.236       5.895       5.554    
        5.271       4.933       4.567       4.292       4.191       4.091       4.105       4.212       4.251       4.272    
        4.290       4.290       4.320       4.343       4.318       4.227       4.088       3.817       3.403       3.129    
        2.792       2.417       2.068       1.743       1.439       1.039      0.6976      0.4627      0.2603       0.000    
  23    10.00       9.882       9.778       9.691       9.593       9.484       9.348       9.236       9.133       8.899    
        8.523       8.060       7.613       7.237       6.928       6.704       6.454       6.156       5.830       5.559    
        5.166       4.669       4.278       3.998       3.587       3.586       3.806       3.927       4.015       4.103    
        4.142       4.176       4.217       4.254       4.233       4.145       3.941       3.632       3.298       2.961    
        2.638       2.328       1.992       1.736       1.350      0.9446      0.6783      0.4448      0.2311       0.000    
  24    10.00       9.908       9.790       9.676       9.563       9.436       9.314       9.219       9.103       8.827    
        8.399       7.962       7.591       7.263       6.968       6.674       6.368       6.099       5.840       5.522    
        5.052       4.560       4.095       3.249       2.348       2.871       3.374       3.667       3.831       3.967    
        4.042       4.091       4.140       4.156       4.133       4.017       3.791       3.540       3.175       2.819    
        2.566       2.268       1.951       1.623       1.209      0.8762      0.6521      0.4164      0.1838       0.000    
  25    10.00       9.899       9.763       9.623       9.491       9.376       9.282       9.187       9.043       8.757    
        8.309       7.902       7.617       7.311       6.969       6.664       6.377       6.142       5.901       5.490    
        4.953       4.469       3.726       2.353     -0.5097       2.249       3.043       3.508       3.753       3.895    
        3.981       4.039       4.080       4.085       4.047       3.916       3.676       3.381       3.084       2.786    
        2.499       2.177       1.814       1.468       1.075      0.8038      0.6485      0.4042      0.1499       0.000    
  26    10.00       9.874       9.699       9.541       9.435       9.342       9.250       9.132       8.963       8.610    
        8.193       7.908       7.635       7.330       7.009       6.716       6.446       6.211       5.908       5.471    
        4.998       4.464       3.813       3.069       2.387       2.744       3.217       3.543       3.743       3.874    
        3.955       4.015       4.040       4.032       3.973       3.812       3.542       3.304       3.067       2.746    
        2.449       2.085       1.669       1.297      0.9763      0.7855      0.6125      0.3596      0.1531       0.000    
  27    10.00       9.846       9.660       9.513       9.423       9.302       9.180       9.032       8.805       8.471    
        8.176       7.924       7.646       7.348       7.034       6.802       6.614       6.295       5.913       5.468    
        5.066       4.678       4.152       3.661       3.273       3.329       3.509       3.669       3.796       3.889    
        3.973       4.022       4.029       4.000       3.917       3.729       3.513       3.305       3.028       2.727    
        2.420       1.980       1.504       1.154      0.9310      0.7718      0.5817      0.3796      0.1831       0.000    
  28    10.00       9.826       9.690       9.525       9.372       9.224       9.089       8.914       8.688       8.429    
        8.186       7.961       7.685       7.353       7.073       6.884       6.675       6.325       5.883       5.489    
        5.203       4.912       4.497       4.112       3.864       3.780       3.772       3.821       3.902       3.978    
        4.033       4.044       4.035       3.984       3.871       3.700       3.526       3.279       2.990       2.686    
        2.310       1.895       1.423       1.077      0.9204      0.7682      0.5992      0.3962      0.1838       0.000    
  29    10.00       9.832       9.662       9.488       9.304       9.162       9.009       8.815       8.624       8.418    
        8.202       7.979       7.711       7.430       7.189       6.966       6.687       6.300       5.895       5.589    
        5.344       5.087       4.745       4.401       4.198       4.087       4.016       4.014       4.053       4.079    
        4.082       4.076       4.046       3.973       3.842       3.693       3.529       3.297       2.977       2.591    
        2.247       1.805       1.333       1.061      0.9231      0.7733      0.5945      0.3868      0.1925       0.000    
  30    10.00       9.807       9.637       9.427       9.241       9.110       8.947       8.776       8.629       8.444    
        8.223       7.982       7.738       7.514       7.299       7.047       6.693       6.333       6.008       5.714    
        5.503       5.247       4.935       4.636       4.391       4.293       4.228       4.204       4.180       4.158    
        4.133       4.108       4.058       3.961       3.838       3.718       3.553       3.255       2.858       2.460    
        2.108       1.701       1.342       1.090      0.9440      0.7749      0.5838      0.4053      0.1989       0.000    
  31    10.00       9.782       9.585       9.385       9.217       9.081       8.926       8.775       8.629       8.450    
        8.231       7.990       7.779       7.594       7.393       7.110       6.759       6.444       6.187       5.925    
        5.698       5.409       5.101       4.849       4.600       4.441       4.377       4.314       4.269       4.221    
        4.187       4.137       4.065       3.968       3.848       3.712       3.450       3.115       2.782       2.392    
        2.059       1.652       1.301       1.118      0.9614      0.8020      0.6032      0.4056      0.1923       0.000    
  32    10.00       9.766       9.554       9.382       9.241       9.105       8.944       8.772       8.595       8.427    
        8.212       8.003       7.816       7.612       7.426       7.187       6.913       6.675       6.409       6.137    
        5.909       5.639       5.327       5.055       4.797       4.571       4.485       4.404       4.339       4.272    
        4.222       4.173       4.076       3.952       3.837       3.648       3.322       3.004       2.709       2.353    
        1.963       1.583       1.323       1.181       1.010      0.8088      0.5985      0.3852      0.1923       0.000    
  33    10.00       9.759       9.578       9.440       9.299       9.141       8.948       8.758       8.569       8.376    
        8.198       8.023       7.838       7.644       7.438       7.251       7.051       6.848       6.630       6.364    
        6.098       5.845       5.582       5.264       4.945       4.689       4.561       4.480       4.400       4.316    
        4.254       4.183       4.079       3.957       3.788       3.526       3.190       2.919       2.632       2.215    
        1.858       1.608       1.400       1.231       1.036      0.8243      0.5667      0.3389      0.1528       0.000    
  34    10.00       9.780       9.632       9.503       9.347       9.154       8.951       8.729       8.522       8.361    
        8.201       8.041       7.875       7.675       7.493       7.313       7.139       6.977       6.769       6.499    
        6.248       6.017       5.757       5.427       5.077       4.791       4.625       4.531       4.439       4.345    
        4.263       4.186       4.080       3.929       3.722       3.399       3.069       2.821       2.479       2.109    
        1.887       1.721       1.520       1.303       1.046      0.7478      0.4581      0.2714      0.1126       0.000    
  35    10.00       9.817       9.684       9.553       9.386       9.170       8.938       8.692       8.495       8.357    
        8.250       8.090       7.906       7.693       7.499       7.372       7.245       7.079       6.864       6.606    
        6.366       6.138       5.898       5.529       5.135       4.863       4.680       4.570       4.465       4.357    
        4.273       4.182       4.057       3.861       3.543       3.204       2.982       2.720       2.368       2.143    
        1.987       1.798       1.596       1.384       1.059      0.6363      0.3521      0.2316      0.1176       0.000    
  36    10.00       9.839       9.723       9.599       9.422       9.166       8.884       8.652       8.511       8.404    
        8.259       8.077       7.909       7.722       7.551       7.424       7.304       7.157       6.987       6.750    
        6.501       6.259       5.965       5.571       5.182       4.906       4.732       4.603       4.474       4.362    
        4.269       4.152       3.956       3.665       3.374       3.136       2.925       2.651       2.367       2.216    
        2.057       1.887       1.683       1.410      0.9668      0.5364      0.3310      0.2119      0.1089       0.000    
  37    10.00       9.856       9.767       9.633       9.398       9.119       8.870       8.690       8.572       8.444    
        8.258       8.064       7.919       7.758       7.600       7.478       7.368       7.232       7.053       6.849    
        6.645       6.382       6.017       5.645       5.278       4.966       4.758       4.598       4.482       4.360    
        4.240       4.071       3.780       3.512       3.303       3.098       2.878       2.660       2.455       2.285    
        2.132       1.941       1.710       1.350      0.8876      0.5182      0.3106      0.1974      9.9033E-02   0.000    
  38    10.00       9.878       9.771       9.624       9.382       9.094       8.884       8.750       8.629       8.479    
        8.282       8.079       7.937       7.788       7.631       7.511       7.416       7.298       7.124       6.946    
        6.759       6.462       6.050       5.650       5.293       4.990       4.766       4.588       4.471       4.359    
        4.192       3.915       3.654       3.481       3.272       3.066       2.905       2.719       2.531       2.368    
        2.186       1.926       1.632       1.241      0.7818      0.4978      0.3503      0.2182      9.7948E-02   0.000    
  39    10.00       9.877       9.756       9.603       9.369       9.109       8.919       8.801       8.653       8.489    
        8.330       8.124       7.961       7.822       7.671       7.543       7.436       7.323       7.183       7.022    
        6.809       6.496       6.075       5.629       5.262       4.982       4.730       4.550       4.454       4.348    
        4.101       3.805       3.636       3.437       3.241       3.092       2.957       2.787       2.603       2.450    
        2.187       1.817       1.471       1.048      0.6990      0.5399      0.4020      0.2618      0.1347       0.000    
  40    10.00       9.868       9.762       9.606       9.392       9.174       8.990       8.834       8.660       8.509    
        8.390       8.191       7.987       7.845       7.705       7.563       7.446       7.355       7.234       7.048    
        6.807       6.450       6.024       5.607       5.230       4.940       4.661       4.518       4.432       4.292    
        4.068       3.838       3.608       3.400       3.259       3.129       2.999       2.840       2.670       2.468    
        2.113       1.709       1.334      0.9903      0.7507      0.5866      0.4492      0.3171      0.1557       0.000    
  41    10.00       9.886       9.802       9.651       9.431       9.205       9.030       8.891       8.721       8.541    
        8.400       8.222       8.034       7.900       7.739       7.568       7.465       7.370       7.218       7.018    
        6.772       6.427       6.002       5.594       5.218       4.834       4.573       4.492       4.402       4.296    
        4.114       3.838       3.605       3.438       3.296       3.179       3.036       2.883       2.707       2.394    
        1.977       1.582       1.255       1.001      0.7936      0.6412      0.4942      0.3492      0.1839       0.000    
  42    10.00       9.915       9.822       9.678       9.489       9.275       9.078       8.936       8.783       8.588    
        8.408       8.238       8.080       7.952       7.783       7.601       7.480       7.352       7.187       6.963    
        6.684       6.309       5.939       5.536       5.048       4.704       4.561       4.498       4.419       4.303    
        4.091       3.849       3.629       3.460       3.344       3.218       3.092       2.926       2.646       2.231    
        1.866       1.570       1.285      0.9976      0.8047      0.6752      0.5341      0.3641      0.2020       0.000    
  43    10.00       9.933       9.834       9.687       9.502       9.326       9.151       8.992       8.806       8.607    
        8.442       8.271       8.115       7.997       7.841       7.638       7.479       7.334       7.109       6.823    
        6.550       6.190       5.846       5.389       4.928       4.697       4.583       4.510       4.434       4.312    
        4.110       3.888       3.676       3.508       3.397       3.272       3.107       2.871       2.463       2.094    
        1.864       1.602       1.301       1.002      0.7979      0.6779      0.5690      0.3942      0.1847       0.000    
  44    10.00       9.926       9.843       9.691       9.524       9.396       9.223       9.009       8.800       8.634    
        8.471       8.302       8.165       8.041       7.862       7.649       7.468       7.295       7.030       6.740    
        6.412       6.051       5.687       5.229       4.880       4.707       4.611       4.545       4.462       4.310    
        4.102       3.924       3.736       3.579       3.466       3.298       3.078       2.740       2.322       2.076    
        1.866       1.592       1.292       1.019      0.8093      0.6808      0.5700      0.3865      0.1704       0.000    
  45    10.00       9.912       9.812       9.690       9.569       9.408       9.229       9.027       8.819       8.654    
        8.486       8.334       8.214       8.075       7.882       7.655       7.451       7.254       6.967       6.625    
        6.247       5.862       5.470       5.130       4.887       4.740       4.646       4.577       4.474       4.349    
        4.168       3.965       3.797       3.637       3.478       3.300       3.059       2.696       2.333       2.045    
        1.805       1.546       1.264       1.019      0.8360      0.7290      0.5632      0.3353      0.1529       0.000    
  46    10.00       9.894       9.790       9.694       9.558       9.376       9.203       9.039       8.836       8.660    
        8.513       8.370       8.251       8.088       7.882       7.681       7.464       7.206       6.895       6.523    
        6.076       5.692       5.377       5.117       4.932       4.802       4.687       4.595       4.514       4.373    
        4.183       4.008       3.844       3.662       3.503       3.331       3.060       2.641       2.258       2.001    
        1.774       1.525       1.259       1.043      0.9010      0.7632      0.5116      0.2515      0.1093       0.000    
  47    10.00       9.888       9.783       9.651       9.494       9.345       9.196       9.020       8.835       8.678    
        8.544       8.417       8.250       8.074       7.890       7.695       7.460       7.159       6.867       6.414    
        5.927       5.626       5.353       5.149       4.977       4.851       4.736       4.624       4.529       4.385    
        4.187       4.014       3.850       3.678       3.538       3.332       2.954       2.578       2.256       1.981    
        1.782       1.546       1.309       1.100      0.9239      0.7015      0.4218      0.2204      9.1805E-02   0.000    
  48    10.00       9.875       9.750       9.610       9.467       9.336       9.185       9.023       8.853       8.699    
        8.562       8.415       8.235       8.053       7.873       7.681       7.457       7.174       6.809       6.359    
        5.936       5.626       5.360       5.173       5.034       4.879       4.764       4.670       4.553       4.358    
        4.163       3.995       3.844       3.716       3.534       3.261       2.901       2.560       2.255       2.012    
        1.798       1.572       1.359       1.122      0.8583      0.5710      0.3611      0.2141      9.6754E-02   0.000    
  49    10.00       9.864       9.729       9.591       9.474       9.338       9.179       9.020       8.882       8.723    
        8.560       8.376       8.198       8.047       7.841       7.655       7.468       7.152       6.791       6.432    
        5.986       5.641       5.376       5.212       5.050       4.883       4.793       4.705       4.520       4.285    
        4.117       3.982       3.872       3.707       3.495       3.251       2.889       2.549       2.310       2.052    
        1.798       1.591       1.363       1.085      0.7609      0.5096      0.3614      0.2333      0.1197       0.000    
  50    10.00       9.870       9.734       9.594       9.467       9.333       9.191       9.035       8.890       8.748    
        8.548       8.356       8.193       7.990       7.782       7.639       7.461       7.216       6.859       6.504    
        6.049       5.615       5.385       5.219       5.049       4.914       4.807       4.689       4.470       4.246    
        4.107       3.996       3.867       3.696       3.500       3.266       2.900       2.551       2.318       2.086    
        1.845       1.584       1.327       1.029      0.7096      0.5216      0.3890      0.2636      0.1590       0.000    

 HEAD WILL BE SAVED ON UNIT   51 AT END OF TIME STEP  80, STRESS PERIOD    2

 DRAWDOWN WILL BE SAVED ON UNIT   52 AT END OF TIME STEP  80, STRESS PERIOD    2
1
  VOLUMETRIC BUDGET FOR ENTIRE MODEL AT END OF TIME STEP 80 IN STRESS PERIOD   2
  ------------------------------------------------------------------------------

     CUMULATIVE VOLUMES      L**3       RATES FOR THIS TIME STEP      L**3/T
     ------------------                 ------------------------

           IN:                                      IN:
           ---                                      ---
             STORAGE =       38684.9727               STORAGE =         444.8774
       CONSTANT HEAD =       31317.5254         CONSTANT HEAD =         418.3605
               WELLS =           0.0000                 WELLS =           0.0000

            TOTAL IN =       70002.5000              TOTAL IN =         863.2379

          OUT:                                     OUT:
          ----                                     ----
             STORAGE =       1.1143E-02               STORAGE =           0.0000
       CONSTANT HEAD =       30002.4805         CONSTANT HEAD =         363.2381
               WELLS =       40000.0000                 WELLS =         500.0000

           TOTAL OUT =       70002.4922             TOTAL OUT =         863.2380

            IN - OUT =       7.8125E-03              IN - OUT =      -1.2207E-04

 PERCENT DISCREPANCY =           0.00     PERCENT DISCREPANCY =           0.00






          TIME SUMMARY AT END OF TIME STEP  80 IN STRESS PERIOD    2
                    SECONDS     MINUTES      HOURS       DAYS        YEARS
                    -----------------------------------------------------------
   TIME STEP LENGTH  86400.      1440.0      24.000      1.0000     2.73785E-03
 STRESS PERIOD TIME 6.91200E+06 1.15200E+05  1920.0      80.000     0.21903    
         TOTAL TIME 6.99840E+06 1.16640E+05  1944.0      81.000     0.22177    
1
 
 SOLVING FOR HEAD 

 OUTPUT CONTROL FOR STRESS PERIOD    2   TIME STEP  81
    SAVE HEAD FOR ALL LAYERS
    SAVE DRAWDOWN FOR ALL LAYERS
    SAVE BUDGET
    PRINT HEAD FOR ALL LAYERS
    PRINT BUDGET
 UBDSV1 SAVING "         STORAGE" ON UNIT  53 AT TIME STEP 81, STRESS PERIOD   2
 UBDSV2 SAVING "   CONSTANT HEAD" ON UNIT  53 AT TIME STEP 81, STRESS PERIOD   2
 UBDSV1 SAVING "FLOW RIGHT FACE " ON UNIT  53 AT TIME STEP 81, STRESS PERIOD   2
 UBDSV1 SAVING "FLOW FRONT FACE " ON UNIT  53 AT TIME STEP 81, STRESS PERIOD   2
1
              HEAD IN LAYER   1 AT END OF TIME STEP  81 IN STRESS PERIOD    2
  ---------------------------------------------------------------------------

            1           2           3           4           5           6           7           8           9          10
           11          12          13          14          15          16          17          18          19          20
           21          22          23          24          25          26          27          28          29          30
           31          32          33          34          35          36          37          38          39          40
           41          42          43          44          45          46          47          48          49          50
 ........................................................................................................................
   1    10.00       9.950       9.900       9.841       9.795       9.756       9.704       9.632       9.553       9.481    
        9.322       9.122       8.975       8.811       8.637       8.460       8.297       8.110       7.859       7.610    
        7.440       7.246       6.991       6.732       6.501       6.301       6.016       5.756       5.573       5.383    
        5.220       5.115       5.005       4.880       4.760       4.611       4.452       4.236       3.989       3.718    
        3.367       3.009       2.537       2.021       1.631       1.349       1.139      0.8987      0.5277       0.000    
   2    10.00       9.944       9.891       9.841       9.802       9.764       9.706       9.633       9.561       9.463    
        9.307       9.129       8.963       8.814       8.652       8.470       8.276       8.083       7.849       7.598    
        7.413       7.254       6.981       6.701       6.496       6.269       5.993       5.746       5.535       5.355    
        5.218       5.123       5.029       4.896       4.755       4.608       4.425       4.223       3.984       3.674    
        3.347       3.042       2.548       2.034       1.689       1.439       1.197      0.9282      0.5606       0.000    
   3    10.00       9.936       9.891       9.856       9.819       9.780       9.717       9.630       9.542       9.435    
        9.294       9.135       8.976       8.825       8.633       8.404       8.214       8.047       7.832       7.611    
        7.422       7.194       6.924       6.676       6.453       6.199       5.933       5.688       5.472       5.339    
        5.229       5.139       5.045       4.899       4.750       4.593       4.411       4.186       3.918       3.681    
        3.392       2.977       2.495       2.127       1.834       1.544       1.246      0.9408      0.5315       0.000    
   4    10.00       9.936       9.896       9.865       9.839       9.797       9.725       9.624       9.520       9.414    
        9.279       9.136       8.976       8.786       8.549       8.337       8.201       8.012       7.804       7.632    
        7.371       7.080       6.843       6.623       6.407       6.101       5.807       5.611       5.466       5.354    
        5.255       5.160       5.058       4.887       4.704       4.561       4.369       4.135       3.908       3.702    
        3.373       2.916       2.552       2.244       1.930       1.601       1.243      0.8854      0.4540       0.000    
   5    10.00       9.941       9.904       9.873       9.850       9.807       9.731       9.615       9.499       9.393    
        9.277       9.130       8.924       8.701       8.500       8.332       8.162       7.986       7.791       7.547    
        7.242       7.002       6.805       6.583       6.303       5.986       5.745       5.607       5.488       5.374    
        5.260       5.144       5.027       4.861       4.674       4.501       4.329       4.147       3.941       3.670    
        3.297       2.950       2.640       2.330       1.987       1.604       1.155      0.7449      0.3859       0.000    
   6    10.00       9.950       9.915       9.885       9.853       9.805       9.724       9.598       9.497       9.382    
        9.253       9.070       8.844       8.658       8.472       8.280       8.105       7.948       7.729       7.450    
        7.179       6.951       6.748       6.472       6.169       5.930       5.736       5.608       5.474       5.355    
        5.255       5.128       4.982       4.810       4.628       4.481       4.333       4.168       3.952       3.659    
        3.336       3.001       2.685       2.372       2.001       1.538       1.054      0.6999      0.3605       0.000    
   7    10.00       9.957       9.926       9.894       9.859       9.802       9.692       9.572       9.466       9.324    
        9.191       8.995       8.788       8.597       8.405       8.209       8.039       7.893       7.640       7.343    
        7.097       6.863       6.638       6.370       6.114       5.897       5.728       5.571       5.427       5.337    
        5.234       5.093       4.938       4.767       4.612       4.482       4.343       4.176       3.956       3.692    
        3.371       3.028       2.701       2.355       1.989       1.504       1.008      0.6661      0.3154       0.000    
   8    10.00       9.964       9.936       9.902       9.861       9.768       9.634       9.519       9.386       9.251    
        9.103       8.901       8.725       8.529       8.314       8.120       7.973       7.798       7.557       7.269    
        6.983       6.769       6.581       6.305       6.037       5.843       5.651       5.481       5.385       5.296    
        5.172       5.032       4.902       4.754       4.596       4.462       4.357       4.231       4.019       3.717    
        3.366       3.062       2.758       2.356       1.949       1.407      0.9329      0.6520      0.3018       0.000    
   9    10.00       9.972       9.940       9.900       9.832       9.709       9.566       9.431       9.314       9.174    
        8.998       8.819       8.643       8.453       8.230       8.050       7.911       7.702       7.464       7.167    
        6.921       6.707       6.438       6.153       5.926       5.754       5.563       5.423       5.330       5.227    
        5.115       4.990       4.867       4.738       4.603       4.479       4.378       4.266       4.046       3.720    
        3.399       3.130       2.811       2.425       1.823       1.211      0.8884      0.5511      0.2102       0.000    
  10    10.00       9.972       9.938       9.883       9.777       9.630       9.471       9.365       9.254       9.088    
        8.934       8.757       8.581       8.375       8.167       8.004       7.815       7.600       7.348       7.107    
        6.864       6.533       6.255       6.031       5.840       5.684       5.507       5.367       5.273       5.192    
        5.075       4.939       4.830       4.713       4.594       4.511       4.411       4.281       4.030       3.707    
        3.459       3.224       2.858       2.277       1.579       1.136      0.8056      0.4920      0.2455       0.000    
  11    10.00       9.972       9.927       9.840       9.721       9.556       9.415       9.326       9.193       9.051    
        8.903       8.716       8.505       8.283       8.109       7.932       7.754       7.522       7.276       7.039    
        6.688       6.369       6.149       5.949       5.764       5.590       5.421       5.313       5.238       5.156    
        5.021       4.896       4.808       4.704       4.611       4.518       4.404       4.264       4.028       3.772    
        3.511       3.205       2.807       2.166       1.513       1.067      0.7542      0.5724      0.3164       0.000    
  12    10.00       9.969       9.907       9.795       9.638       9.474       9.361       9.273       9.156       9.028    
        8.865       8.665       8.452       8.256       8.078       7.883       7.678       7.439       7.188       6.863    
        6.515       6.275       6.058       5.854       5.649       5.477       5.360       5.281       5.183       5.074    
        4.954       4.865       4.788       4.708       4.627       4.534       4.413       4.245       4.028       3.799    
        3.519       3.186       2.641       1.919       1.364       1.050      0.8368      0.6072      0.3463       0.000    
  13    10.00       9.959       9.862       9.707       9.543       9.402       9.311       9.233       9.133       9.009    
        8.836       8.628       8.432       8.275       8.069       7.828       7.588       7.329       7.048       6.730    
        6.426       6.165       5.929       5.716       5.520       5.395       5.325       5.209       5.082       4.984    
        4.910       4.842       4.773       4.708       4.630       4.550       4.442       4.251       4.031       3.759    
        3.437       3.016       2.382       1.798       1.395       1.128      0.8794      0.6086      0.3008       0.000    
  14    10.00       9.925       9.785       9.615       9.462       9.351       9.290       9.217       9.121       8.984    
        8.794       8.615       8.455       8.291       8.055       7.770       7.512       7.218       6.907       6.575    
        6.281       6.019       5.787       5.577       5.426       5.341       5.252       5.110       5.003       4.932    
        4.880       4.815       4.759       4.698       4.629       4.565       4.438       4.242       4.011       3.671    
        3.293       2.795       2.309       1.884       1.484       1.171      0.8947      0.6090      0.2714       0.000    
  15    10.00       9.859       9.703       9.551       9.428       9.342       9.275       9.206       9.111       8.983    
        8.813       8.639       8.480       8.247       7.969       7.694       7.408       7.104       6.733       6.381    
        6.108       5.855       5.638       5.480       5.367       5.278       5.167       5.036       4.949       4.899    
        4.838       4.787       4.745       4.687       4.623       4.554       4.417       4.233       3.940       3.575    
        3.184       2.739       2.347       1.909       1.573       1.240      0.9059      0.6034      0.2477       0.000    
  16    10.00       9.835       9.666       9.526       9.421       9.342       9.272       9.209       9.116       8.983    
        8.823       8.656       8.458       8.159       7.854       7.626       7.343       6.936       6.513       6.188    
        5.909       5.699       5.522       5.389       5.264       5.184       5.061       4.956       4.891       4.835    
        4.792       4.761       4.717       4.664       4.606       4.526       4.401       4.176       3.858       3.529    
        3.197       2.771       2.332       1.947       1.631       1.281      0.9037      0.5411      0.2038       0.000    
  17    10.00       9.813       9.643       9.530       9.436       9.357       9.288       9.217       9.115       8.991    
        8.841       8.629       8.356       8.034       7.778       7.561       7.213       6.753       6.326       6.014    
        5.792       5.559       5.362       5.219       5.117       5.015       4.909       4.845       4.794       4.766    
        4.754       4.725       4.680       4.628       4.567       4.481       4.333       4.137       3.884       3.542    
        3.165       2.717       2.312       1.973       1.649       1.291      0.9230      0.5640      0.2386       0.000    
  18    10.00       9.802       9.642       9.545       9.460       9.383       9.314       9.228       9.128       8.994    
        8.814       8.562       8.259       7.985       7.734       7.415       7.011       6.592       6.216       5.909    
        5.635       5.336       5.168       5.049       4.960       4.843       4.776       4.721       4.689       4.700    
        4.698       4.674       4.630       4.571       4.509       4.418       4.279       4.122       3.904       3.590    
        3.103       2.628       2.297       1.975       1.700       1.324      0.9189      0.5537      0.2387       0.000    
  19    10.00       9.811       9.677       9.577       9.486       9.409       9.328       9.247       9.155       9.000    
        8.787       8.518       8.217       7.913       7.580       7.234       6.861       6.457       6.078       5.754    
        5.436       5.177       5.043       4.952       4.825       4.722       4.665       4.615       4.607       4.613    
        4.624       4.612       4.559       4.507       4.458       4.390       4.261       4.091       3.872       3.505    
        3.015       2.613       2.284       1.968       1.660       1.271      0.8837      0.5509      0.2598       0.000    
  20    10.00       9.821       9.707       9.619       9.531       9.440       9.344       9.257       9.164       9.005    
        8.774       8.494       8.144       7.748       7.366       7.084       6.709       6.277       5.946       5.624    
        5.341       5.127       4.965       4.826       4.663       4.591       4.555       4.531       4.537       4.539    
        4.546       4.526       4.485       4.459       4.421       4.354       4.206       4.036       3.786       3.375    
        2.954       2.634       2.255       1.895       1.558       1.175      0.8866      0.5474      0.2429       0.000    
  21    10.00       9.847       9.744       9.655       9.559       9.472       9.366       9.272       9.170       8.991    
        8.741       8.397       7.959       7.497       7.144       6.888       6.537       6.222       5.912       5.565    
        5.296       5.059       4.856       4.591       4.457       4.420       4.364       4.404       4.440       4.438    
        4.435       4.409       4.409       4.399       4.372       4.282       4.139       3.993       3.630       3.203    
        2.890       2.544       2.157       1.820       1.463       1.127      0.8029      0.4822      0.2424       0.000    
  22    10.00       9.880       9.772       9.675       9.582       9.499       9.379       9.256       9.138       8.952    
        8.645       8.213       7.720       7.288       6.986       6.720       6.453       6.227       5.885       5.544    
        5.261       4.922       4.556       4.281       4.180       4.080       4.094       4.201       4.240       4.261    
        4.279       4.279       4.309       4.332       4.308       4.217       4.079       3.809       3.396       3.123    
        2.787       2.413       2.065       1.741       1.437       1.038      0.6968      0.4622      0.2600       0.000    
  23    10.00       9.881       9.777       9.690       9.592       9.482       9.346       9.234       9.130       8.896    
        8.519       8.055       7.606       7.229       6.920       6.696       6.444       6.147       5.820       5.549    
        5.155       4.659       4.267       3.987       3.576       3.575       3.795       3.916       4.004       4.091    
        4.130       4.165       4.206       4.243       4.222       4.135       3.932       3.624       3.291       2.956    
        2.633       2.324       1.989       1.733       1.349      0.9435      0.6776      0.4443      0.2309       0.000    
  24    10.00       9.907       9.790       9.675       9.561       9.435       9.312       9.216       9.100       8.823    
        8.394       7.956       7.584       7.256       6.960       6.666       6.359       6.089       5.830       5.512    
        5.041       4.549       4.084       3.238       2.336       2.859       3.362       3.655       3.820       3.956    
        4.030       4.079       4.128       4.145       4.122       4.006       3.782       3.532       3.168       2.813    
        2.561       2.265       1.948       1.621       1.207      0.8751      0.6513      0.4159      0.1836       0.000    
  25    10.00       9.899       9.763       9.622       9.489       9.374       9.280       9.184       9.040       8.753    
        8.303       7.895       7.610       7.303       6.961       6.655       6.368       6.132       5.891       5.480    
        4.942       4.458       3.715       2.341     -0.5222       2.237       3.032       3.497       3.741       3.884    
        3.970       4.027       4.069       4.073       4.036       3.906       3.667       3.373       3.078       2.780    
        2.494       2.173       1.812       1.466       1.074      0.8028      0.6477      0.4038      0.1497       0.000    
  26    10.00       9.873       9.698       9.540       9.433       9.340       9.247       9.129       8.960       8.606    
        8.188       7.902       7.628       7.322       7.001       6.708       6.437       6.201       5.898       5.461    
        4.987       4.453       3.802       3.058       2.375       2.732       3.205       3.531       3.731       3.862    
        3.943       4.003       4.029       4.021       3.962       3.802       3.533       3.296       3.060       2.740    
        2.444       2.081       1.667       1.295      0.9750      0.7845      0.6117      0.3591      0.1529       0.000    
  27    10.00       9.845       9.659       9.511       9.421       9.300       9.178       9.029       8.801       8.466    
        8.171       7.918       7.640       7.341       7.026       6.793       6.605       6.286       5.903       5.457    
        5.056       4.667       4.141       3.650       3.261       3.318       3.497       3.657       3.784       3.877    
        3.962       4.011       4.018       3.989       3.906       3.720       3.504       3.297       3.021       2.721    
        2.415       1.977       1.502       1.153      0.9298      0.7708      0.5810      0.3792      0.1829       0.000    
  28    10.00       9.825       9.689       9.523       9.370       9.221       9.086       8.910       8.684       8.424    
        8.180       7.955       7.679       7.346       7.065       6.876       6.666       6.316       5.873       5.479    
        5.193       4.901       4.486       4.101       3.853       3.769       3.761       3.809       3.890       3.967    
        4.021       4.033       4.024       3.973       3.861       3.691       3.517       3.271       2.984       2.680    
        2.305       1.892       1.421       1.075      0.9191      0.7672      0.5985      0.3957      0.1836       0.000    
  29    10.00       9.831       9.661       9.486       9.302       9.159       9.006       8.811       8.620       8.413    
        8.197       7.973       7.705       7.423       7.182       6.958       6.678       6.290       5.886       5.579    
        5.334       5.077       4.734       4.390       4.187       4.075       4.005       4.003       4.042       4.067    
        4.071       4.064       4.035       3.962       3.832       3.683       3.520       3.289       2.971       2.586    
        2.242       1.802       1.331       1.060      0.9219      0.7723      0.5937      0.3864      0.1922       0.000    
  30    10.00       9.807       9.636       9.426       9.239       9.107       8.944       8.773       8.625       8.440    
        8.218       7.976       7.732       7.507       7.292       7.040       6.684       6.324       5.998       5.704    
        5.493       5.237       4.924       4.625       4.380       4.282       4.217       4.193       4.169       4.147    
        4.122       4.097       4.047       3.950       3.828       3.709       3.544       3.247       2.851       2.455    
        2.104       1.699       1.340       1.088      0.9428      0.7739      0.5831      0.4048      0.1987       0.000    
  31    10.00       9.782       9.584       9.383       9.215       9.078       8.923       8.771       8.625       8.445    
        8.226       7.984       7.773       7.587       7.386       7.102       6.751       6.435       6.178       5.915    
        5.689       5.399       5.091       4.838       4.589       4.430       4.366       4.304       4.258       4.210    
        4.176       4.126       4.055       3.958       3.838       3.703       3.442       3.108       2.776       2.388    
        2.055       1.650       1.299       1.116      0.9601      0.8010      0.6025      0.4051      0.1921       0.000    
  32    10.00       9.765       9.553       9.381       9.239       9.102       8.941       8.769       8.591       8.422    
        8.207       7.998       7.810       7.606       7.420       7.179       6.906       6.667       6.401       6.128    
        5.900       5.629       5.317       5.045       4.786       4.560       4.475       4.393       4.328       4.262    
        4.212       4.162       4.066       3.943       3.828       3.639       3.315       2.998       2.704       2.348    
        1.960       1.580       1.321       1.180       1.009      0.8077      0.5977      0.3848      0.1920       0.000    
  33    10.00       9.758       9.576       9.439       9.297       9.139       8.945       8.754       8.565       8.372    
        8.193       8.017       7.833       7.638       7.431       7.244       7.044       6.841       6.622       6.355    
        6.089       5.835       5.572       5.254       4.935       4.678       4.550       4.470       4.390       4.305    
        4.244       4.173       4.069       3.948       3.780       3.518       3.183       2.913       2.627       2.211    
        1.856       1.606       1.398       1.230       1.035      0.8233      0.5661      0.3385      0.1526       0.000    
  34    10.00       9.780       9.631       9.502       9.345       9.152       8.948       8.726       8.518       8.357    
        8.196       8.036       7.869       7.669       7.486       7.306       7.132       6.970       6.761       6.490    
        6.239       6.008       5.747       5.417       5.067       4.781       4.615       4.521       4.429       4.335    
        4.253       4.177       4.071       3.920       3.714       3.392       3.064       2.816       2.475       2.106    
        1.885       1.718       1.518       1.302       1.045      0.7469      0.4575      0.2711      0.1124       0.000    
  35    10.00       9.816       9.683       9.552       9.385       9.167       8.935       8.689       8.491       8.353    
        8.245       8.085       7.900       7.687       7.493       7.365       7.238       7.071       6.856       6.598    
        6.358       6.129       5.889       5.520       5.126       4.853       4.671       4.561       4.455       4.348    
        4.264       4.173       4.048       3.853       3.536       3.198       2.977       2.716       2.365       2.140    
        1.984       1.795       1.594       1.382       1.058      0.6355      0.3517      0.2313      0.1174       0.000    
  36    10.00       9.838       9.723       9.597       9.420       9.163       8.881       8.649       8.507       8.399    
        8.254       8.072       7.904       7.716       7.545       7.418       7.297       7.150       6.980       6.742    
        6.492       6.251       5.956       5.562       5.173       4.896       4.723       4.594       4.465       4.353    
        4.261       4.144       3.948       3.658       3.368       3.131       2.921       2.647       2.364       2.213    
        2.054       1.885       1.681       1.408      0.9657      0.5358      0.3306      0.2117      0.1088       0.000    
  37    10.00       9.856       9.766       9.632       9.397       9.117       8.868       8.686       8.568       8.440    
        8.253       8.059       7.914       7.752       7.594       7.472       7.362       7.226       7.046       6.841    
        6.637       6.374       6.008       5.637       5.269       4.957       4.750       4.590       4.474       4.351    
        4.232       4.063       3.774       3.507       3.298       3.093       2.874       2.656       2.451       2.283    
        2.129       1.938       1.708       1.348      0.8866      0.5176      0.3103      0.1972      9.8930E-02   0.000    
  38    10.00       9.877       9.770       9.623       9.380       9.092       8.881       8.747       8.625       8.476    
        8.278       8.074       7.931       7.783       7.626       7.505       7.410       7.292       7.117       6.939    
        6.751       6.454       6.042       5.642       5.285       4.982       4.758       4.581       4.464       4.351    
        4.184       3.908       3.649       3.476       3.267       3.062       2.902       2.716       2.528       2.365    
        2.183       1.923       1.630       1.240      0.7810      0.4973      0.3499      0.2180      9.7854E-02   0.000    
  39    10.00       9.877       9.755       9.602       9.367       9.107       8.917       8.798       8.650       8.486    
        8.326       8.120       7.956       7.817       7.665       7.537       7.431       7.317       7.177       7.015    
        6.802       6.489       6.067       5.622       5.255       4.975       4.724       4.544       4.447       4.342    
        4.095       3.800       3.631       3.433       3.237       3.088       2.954       2.783       2.600       2.447    
        2.185       1.815       1.470       1.047      0.6984      0.5394      0.4017      0.2616      0.1346       0.000    
  40    10.00       9.867       9.761       9.605       9.390       9.172       8.987       8.831       8.656       8.506    
        8.386       8.187       7.982       7.840       7.700       7.557       7.440       7.350       7.228       7.042    
        6.800       6.444       6.017       5.601       5.223       4.934       4.656       4.512       4.427       4.287    
        4.063       3.833       3.603       3.396       3.255       3.125       2.996       2.837       2.667       2.465    
        2.111       1.708       1.332      0.9893      0.7500      0.5861      0.4488      0.3168      0.1556       0.000    
  41    10.00       9.886       9.801       9.650       9.429       9.203       9.028       8.889       8.718       8.538    
        8.397       8.218       8.029       7.895       7.734       7.562       7.460       7.365       7.212       7.013    
        6.766       6.421       5.996       5.588       5.212       4.829       4.568       4.487       4.397       4.291    
        4.109       3.834       3.601       3.434       3.292       3.175       3.033       2.880       2.704       2.391    
        1.975       1.581       1.254       1.000      0.7929      0.6407      0.4938      0.3489      0.1838       0.000    
  42    10.00       9.915       9.821       9.677       9.488       9.274       9.076       8.933       8.780       8.585    
        8.405       8.234       8.076       7.947       7.779       7.596       7.475       7.347       7.182       6.957    
        6.679       6.304       5.934       5.531       5.044       4.699       4.557       4.493       4.415       4.299    
        4.087       3.846       3.625       3.456       3.341       3.215       3.088       2.922       2.643       2.229    
        1.864       1.569       1.284      0.9968      0.8041      0.6747      0.5336      0.3638      0.2019       0.000    
  43    10.00       9.933       9.834       9.687       9.501       9.324       9.149       8.990       8.804       8.604    
        8.439       8.268       8.112       7.993       7.837       7.634       7.474       7.329       7.104       6.819    
        6.545       6.186       5.842       5.385       4.924       4.693       4.579       4.506       4.430       4.308    
        4.107       3.885       3.672       3.504       3.393       3.269       3.104       2.868       2.460       2.092    
        1.863       1.601       1.300       1.002      0.7973      0.6774      0.5686      0.3939      0.1846       0.000    
  44    10.00       9.926       9.842       9.690       9.523       9.395       9.222       9.007       8.798       8.632    
        8.468       8.299       8.161       8.038       7.858       7.646       7.464       7.291       7.026       6.736    
        6.408       6.047       5.684       5.225       4.877       4.704       4.607       4.542       4.458       4.306    
        4.098       3.920       3.733       3.576       3.462       3.295       3.075       2.737       2.320       2.074    
        1.865       1.591       1.291       1.018      0.8087      0.6803      0.5696      0.3863      0.1702       0.000    
  45    10.00       9.912       9.811       9.690       9.568       9.407       9.227       9.026       8.817       8.652    
        8.484       8.332       8.211       8.073       7.879       7.652       7.448       7.251       6.964       6.622    
        6.243       5.859       5.466       5.126       4.884       4.736       4.642       4.573       4.471       4.345    
        4.165       3.962       3.794       3.634       3.475       3.298       3.056       2.694       2.331       2.043    
        1.803       1.545       1.263       1.018      0.8355      0.7285      0.5628      0.3351      0.1528       0.000    
  46    10.00       9.894       9.790       9.694       9.558       9.376       9.202       9.038       8.835       8.659    
        8.511       8.368       8.248       8.085       7.879       7.678       7.461       7.203       6.892       6.520    
        6.073       5.689       5.374       5.114       4.929       4.799       4.683       4.591       4.510       4.370    
        4.180       4.005       3.841       3.659       3.501       3.329       3.057       2.640       2.257       2.000    
        1.773       1.524       1.258       1.043      0.9004      0.7627      0.5113      0.2513      0.1093       0.000    
  47    10.00       9.888       9.783       9.650       9.493       9.344       9.195       9.018       8.834       8.677    
        8.542       8.415       8.248       8.072       7.888       7.693       7.457       7.157       6.864       6.412    
        5.924       5.623       5.350       5.146       4.974       4.847       4.733       4.621       4.526       4.382    
        4.183       4.011       3.847       3.675       3.536       3.329       2.952       2.576       2.255       1.980    
        1.781       1.545       1.308       1.100      0.9234      0.7011      0.4216      0.2203      9.1756E-02   0.000    
  48    10.00       9.875       9.750       9.610       9.467       9.335       9.184       9.022       8.852       8.698    
        8.561       8.414       8.233       8.051       7.871       7.679       7.455       7.171       6.806       6.356    
        5.933       5.624       5.358       5.170       5.031       4.876       4.761       4.667       4.549       4.355    
        4.161       3.992       3.841       3.713       3.531       3.259       2.899       2.559       2.254       2.011    
        1.797       1.572       1.358       1.122      0.8578      0.5707      0.3609      0.2140      9.6708E-02   0.000    
  49    10.00       9.864       9.728       9.590       9.474       9.337       9.178       9.019       8.881       8.722    
        8.558       8.374       8.196       8.045       7.839       7.653       7.466       7.150       6.789       6.430    
        5.983       5.638       5.373       5.209       5.047       4.880       4.790       4.702       4.517       4.282    
        4.115       3.980       3.870       3.704       3.493       3.249       2.888       2.548       2.309       2.051    
        1.797       1.590       1.362       1.085      0.7605      0.5094      0.3612      0.2331      0.1196       0.000    
  50    10.00       9.869       9.733       9.593       9.466       9.332       9.190       9.034       8.889       8.747    
        8.547       8.354       8.192       7.988       7.780       7.637       7.459       7.214       6.857       6.502    
        6.047       5.612       5.382       5.216       5.046       4.911       4.804       4.686       4.467       4.243    
        4.105       3.993       3.865       3.693       3.498       3.264       2.899       2.550       2.317       2.085    
        1.844       1.583       1.327       1.029      0.7093      0.5214      0.3888      0.2635      0.1589       0.000    

 HEAD WILL BE SAVED ON UNIT   51 AT END OF TIME STEP  81, STRESS PERIOD    2

 DRAWDOWN WILL BE SAVED ON UNIT   52 AT END OF TIME STEP  81, STRESS PERIOD    2
1
  VOLUMETRIC BUDGET FOR ENTIRE MODEL AT END OF TIME STEP 81 IN STRESS PERIOD   2
  ------------------------------------------------------------------------------

     CUMULATIVE VOLUMES      L**3       RATES FOR THIS TIME STEP      L**3/T
     ------------------                 ------------------------

           IN:                                      IN:
           ---                                      ---
             STORAGE =       39128.4688               STORAGE =         443.4951
       CONSTANT HEAD =       31736.9180         CONSTANT HEAD =         419.3916
               WELLS =           0.0000                 WELLS =           0.0000

            TOTAL IN =       70865.3906              TOTAL IN =         862.8867

          OUT:                                     OUT:
          ----                                     ----
             STORAGE =       1.1143E-02               STORAGE =           0.0000
       CONSTANT HEAD =       30365.3672         CONSTANT HEAD =         362.8866
               WELLS =       40500.0000                 WELLS =         500.0000

           TOTAL OUT =       70865.3750             TOTAL OUT =         862.8866

            IN - OUT =       1.5625E-02              IN - OUT =       1.2207E-04

 PERCENT DISCREPANCY =           0.00     PERCENT DISCREPANCY =           0.00






          TIME SUMMARY AT END OF TIME STEP  81 IN STRESS PERIOD    2
                    SECONDS     MINUTES      HOURS       DAYS        YEARS
                    -----------------------------------------------------------
   TIME STEP LENGTH  86400.      1440.0      24.000      1.0000     2.73785E-03
 STRESS PERIOD TIME 6.99840E+06 1.16640E+05  1944.0      81.000     0.22177    
         TOTAL TIME 7.08480E+06 1.18080E+05  1968.0      82.000     0.22450    
1
 
 SOLVING FOR HEAD 

 OUTPUT CONTROL FOR STRESS PERIOD    2   TIME STEP  82
    SAVE HEAD FOR ALL LAYERS
    SAVE DRAWDOWN FOR ALL LAYERS
    SAVE BUDGET
    PRINT HEAD FOR ALL LAYERS
    PRINT BUDGET
 UBDSV1 SAVING "         STORAGE" ON UNIT  53 AT TIME STEP 82, STRESS PERIOD   2
 UBDSV2 SAVING "   CONSTANT HEAD" ON UNIT  53 AT TIME STEP 82, STRESS PERIOD   2
 UBDSV1 SAVING "FLOW RIGHT FACE " ON UNIT  53 AT TIME STEP 82, STRESS PERIOD   2
 UBDSV1 SAVING "FLOW FRONT FACE " ON UNIT  53 AT TIME STEP 82, STRESS PERIOD   2
1
              HEAD IN LAYER   1 AT END OF TIME STEP  82 IN STRESS PERIOD    2
  ---------------------------------------------------------------------------

            1           2           3           4           5           6           7           8           9          10
           11          12          13          14          15          16          17          18          19          20
           21          22          23          24          25          26          27          28          29          30
           31          32          33          34          35          36          37          38          39          40
           41          42          43          44          45          46          47          48          49          50
 ........................................................................................................................
   1    10.00       9.950       9.900       9.841       9.794       9.755       9.703       9.631       9.552       9.480    
        9.320       9.121       8.973       8.809       8.634       8.458       8.294       8.106       7.856       7.606    
        7.436       7.242       6.987       6.728       6.496       6.296       6.011       5.751       5.568       5.377    
        5.214       5.110       4.999       4.874       4.754       4.606       4.447       4.232       3.985       3.714    
        3.364       3.006       2.535       2.019       1.629       1.348       1.138      0.8979      0.5272       0.000    
   2    10.00       9.944       9.891       9.841       9.802       9.764       9.706       9.632       9.560       9.462    
        9.306       9.127       8.961       8.812       8.650       8.468       8.273       8.080       7.846       7.594    
        7.409       7.249       6.976       6.696       6.491       6.264       5.987       5.740       5.529       5.349    
        5.212       5.117       5.024       4.890       4.750       4.603       4.420       4.219       3.980       3.670    
        3.343       3.039       2.545       2.033       1.688       1.438       1.196      0.9274      0.5601       0.000    
   3    10.00       9.935       9.891       9.856       9.818       9.779       9.717       9.629       9.541       9.434    
        9.293       9.134       8.974       8.823       8.630       8.401       8.211       8.044       7.828       7.607    
        7.418       7.189       6.919       6.672       6.448       6.194       5.927       5.683       5.466       5.334    
        5.223       5.133       5.040       4.893       4.745       4.588       4.406       4.181       3.913       3.677    
        3.388       2.974       2.492       2.125       1.832       1.543       1.245      0.9400      0.5310       0.000    
   4    10.00       9.936       9.896       9.865       9.839       9.797       9.725       9.623       9.519       9.413    
        9.278       9.135       8.975       8.784       8.546       8.334       8.198       8.009       7.801       7.628    
        7.366       7.075       6.838       6.618       6.401       6.096       5.801       5.605       5.460       5.348    
        5.249       5.154       5.052       4.881       4.699       4.556       4.364       4.131       3.903       3.698    
        3.369       2.913       2.550       2.242       1.928       1.599       1.241      0.8846      0.4536       0.000    
   5    10.00       9.941       9.904       9.873       9.850       9.807       9.730       9.614       9.498       9.391    
        9.276       9.129       8.922       8.699       8.497       8.329       8.159       7.982       7.787       7.543    
        7.237       6.997       6.800       6.577       6.297       5.980       5.739       5.601       5.482       5.368    
        5.254       5.138       5.021       4.855       4.669       4.496       4.324       4.142       3.937       3.665    
        3.294       2.947       2.638       2.327       1.985       1.603       1.154      0.7443      0.3855       0.000    
   6    10.00       9.950       9.915       9.884       9.852       9.805       9.723       9.598       9.496       9.381    
        9.252       9.069       8.841       8.655       8.469       8.277       8.102       7.944       7.725       7.446    
        7.175       6.946       6.743       6.466       6.163       5.924       5.730       5.602       5.468       5.349    
        5.249       5.122       4.976       4.804       4.623       4.475       4.327       4.163       3.947       3.655    
        3.332       2.998       2.683       2.369       1.999       1.536       1.053      0.6993      0.3601       0.000    
   7    10.00       9.957       9.926       9.894       9.859       9.801       9.692       9.571       9.465       9.322    
        9.189       8.993       8.786       8.594       8.402       8.205       8.035       7.889       7.636       7.338    
        7.092       6.858       6.632       6.364       6.107       5.890       5.721       5.564       5.420       5.330    
        5.228       5.086       4.931       4.761       4.606       4.476       4.338       4.171       3.951       3.688    
        3.367       3.024       2.698       2.353       1.987       1.502       1.007      0.6654      0.3151       0.000    
   8    10.00       9.964       9.936       9.901       9.861       9.768       9.633       9.518       9.385       9.249    
        9.101       8.899       8.723       8.526       8.310       8.116       7.969       7.794       7.552       7.263    
        6.977       6.763       6.575       6.298       6.030       5.837       5.644       5.474       5.378       5.289    
        5.165       5.025       4.895       4.748       4.590       4.456       4.351       4.226       4.013       3.712    
        3.362       3.058       2.754       2.354       1.947       1.405      0.9320      0.6514      0.3015       0.000    
   9    10.00       9.972       9.940       9.900       9.831       9.708       9.565       9.429       9.312       9.172    
        8.996       8.816       8.640       8.450       8.227       8.046       7.906       7.698       7.459       7.162    
        6.915       6.701       6.431       6.146       5.919       5.746       5.555       5.416       5.323       5.220    
        5.108       4.982       4.860       4.731       4.597       4.473       4.371       4.260       4.041       3.715    
        3.394       3.126       2.808       2.423       1.821       1.210      0.8875      0.5505      0.2100       0.000    
  10    10.00       9.972       9.938       9.882       9.776       9.629       9.469       9.364       9.252       9.086    
        8.932       8.754       8.578       8.371       8.163       8.000       7.811       7.595       7.342       7.101    
        6.858       6.526       6.247       6.024       5.833       5.676       5.499       5.359       5.265       5.184    
        5.067       4.932       4.823       4.705       4.587       4.504       4.404       4.275       4.024       3.702    
        3.454       3.219       2.855       2.274       1.577       1.135      0.8047      0.4915      0.2453       0.000    
  11    10.00       9.972       9.927       9.840       9.720       9.555       9.413       9.325       9.191       9.049    
        8.901       8.713       8.501       8.279       8.104       7.927       7.749       7.517       7.270       7.033    
        6.681       6.361       6.141       5.941       5.756       5.582       5.413       5.305       5.230       5.148    
        5.013       4.888       4.800       4.696       4.603       4.511       4.397       4.258       4.022       3.766    
        3.506       3.201       2.803       2.163       1.512       1.066      0.7534      0.5718      0.3160       0.000    
  12    10.00       9.969       9.907       9.794       9.637       9.472       9.359       9.271       9.153       9.025    
        8.862       8.662       8.448       8.252       8.074       7.878       7.673       7.433       7.182       6.856    
        6.508       6.267       6.050       5.845       5.641       5.468       5.352       5.273       5.175       5.066    
        4.946       4.857       4.780       4.700       4.619       4.527       4.406       4.239       4.022       3.793    
        3.514       3.182       2.637       1.917       1.362       1.049      0.8359      0.6065      0.3459       0.000    
  13    10.00       9.959       9.861       9.707       9.542       9.400       9.309       9.231       9.131       9.006    
        8.833       8.624       8.428       8.271       8.064       7.823       7.582       7.323       7.042       6.723    
        6.419       6.157       5.921       5.708       5.511       5.387       5.316       5.200       5.073       4.975    
        4.901       4.833       4.765       4.700       4.622       4.542       4.434       4.244       4.025       3.754    
        3.432       3.012       2.379       1.796       1.394       1.127      0.8783      0.6079      0.3005       0.000    
  14    10.00       9.924       9.784       9.613       9.461       9.349       9.288       9.215       9.119       8.982    
        8.790       8.611       8.451       8.286       8.050       7.765       7.506       7.211       6.900       6.568    
        6.273       6.010       5.778       5.568       5.417       5.331       5.243       5.101       4.994       4.923    
        4.871       4.807       4.750       4.690       4.620       4.557       4.430       4.234       4.004       3.665    
        3.288       2.791       2.306       1.881       1.482       1.170      0.8936      0.6083      0.2711       0.000    
  15    10.00       9.858       9.702       9.549       9.426       9.341       9.272       9.204       9.108       8.980    
        8.810       8.636       8.476       8.242       7.964       7.689       7.402       7.097       6.725       6.373    
        6.099       5.846       5.629       5.471       5.357       5.268       5.157       5.026       4.939       4.890    
        4.829       4.778       4.736       4.678       4.614       4.546       4.409       4.226       3.933       3.569    
        3.179       2.735       2.343       1.907       1.571       1.238      0.9049      0.6027      0.2474       0.000    
  16    10.00       9.835       9.665       9.525       9.419       9.340       9.270       9.207       9.114       8.980    
        8.820       8.652       8.453       8.154       7.849       7.620       7.336       6.928       6.505       6.179    
        5.900       5.690       5.513       5.379       5.254       5.174       5.052       4.946       4.882       4.825    
        4.782       4.752       4.708       4.655       4.597       4.517       4.392       4.169       3.852       3.523    
        3.192       2.767       2.328       1.945       1.629       1.280      0.9027      0.5405      0.2036       0.000    
  17    10.00       9.813       9.642       9.529       9.435       9.355       9.286       9.214       9.113       8.988    
        8.838       8.625       8.352       8.028       7.772       7.555       7.206       6.745       6.318       6.005    
        5.783       5.549       5.352       5.209       5.107       5.005       4.899       4.835       4.784       4.756    
        4.744       4.716       4.671       4.619       4.558       4.472       4.324       4.129       3.877       3.536    
        3.160       2.713       2.309       1.970       1.647       1.289      0.9220      0.5633      0.2384       0.000    
  18    10.00       9.802       9.641       9.543       9.458       9.381       9.312       9.226       9.126       8.991    
        8.810       8.558       8.254       7.979       7.728       7.408       7.003       6.583       6.207       5.900    
        5.625       5.326       5.158       5.039       4.950       4.833       4.766       4.711       4.679       4.690    
        4.689       4.664       4.620       4.562       4.500       4.409       4.271       4.114       3.896       3.584    
        3.098       2.624       2.294       1.973       1.698       1.323      0.9178      0.5531      0.2385       0.000    
  19    10.00       9.810       9.676       9.575       9.485       9.407       9.326       9.245       9.153       8.997    
        8.783       8.514       8.212       7.907       7.573       7.227       6.852       6.448       6.069       5.744    
        5.426       5.167       5.033       4.942       4.814       4.711       4.655       4.604       4.597       4.603    
        4.614       4.602       4.549       4.498       4.449       4.381       4.252       4.083       3.864       3.498    
        3.010       2.609       2.281       1.965       1.658       1.270      0.8827      0.5503      0.2596       0.000    
  20    10.00       9.820       9.706       9.618       9.530       9.438       9.342       9.255       9.162       9.002    
        8.770       8.489       8.138       7.742       7.359       7.077       6.700       6.268       5.937       5.614    
        5.331       5.117       4.955       4.816       4.653       4.581       4.545       4.520       4.526       4.528    
        4.536       4.515       4.475       4.449       4.412       4.344       4.197       4.028       3.779       3.369    
        2.949       2.630       2.252       1.892       1.556       1.173      0.8856      0.5468      0.2427       0.000    
  21    10.00       9.846       9.744       9.654       9.558       9.470       9.364       9.270       9.168       8.988    
        8.737       8.392       7.953       7.490       7.136       6.880       6.528       6.213       5.903       5.555    
        5.286       5.049       4.846       4.581       4.446       4.409       4.353       4.394       4.430       4.427    
        4.424       4.399       4.398       4.389       4.362       4.272       4.130       3.985       3.623       3.197    
        2.885       2.540       2.153       1.818       1.461       1.126      0.8020      0.4817      0.2422       0.000    
  22    10.00       9.879       9.771       9.674       9.581       9.498       9.377       9.254       9.136       8.949    
        8.641       8.208       7.714       7.280       6.978       6.712       6.444       6.217       5.875       5.534    
        5.251       4.912       4.546       4.270       4.169       4.069       4.083       4.190       4.229       4.250    
        4.268       4.268       4.298       4.322       4.297       4.208       4.070       3.801       3.389       3.118    
        2.782       2.409       2.062       1.739       1.435       1.037      0.6960      0.4617      0.2597       0.000    
  23    10.00       9.881       9.777       9.689       9.591       9.480       9.343       9.232       9.128       8.892    
        8.514       8.049       7.599       7.222       6.912       6.687       6.435       6.137       5.811       5.538    
        5.145       4.648       4.256       3.976       3.565       3.564       3.784       3.905       3.993       4.080    
        4.119       4.153       4.195       4.232       4.212       4.124       3.923       3.616       3.285       2.950    
        2.628       2.320       1.986       1.731       1.347      0.9424      0.6768      0.4438      0.2306       0.000    
  24    10.00       9.907       9.789       9.674       9.560       9.433       9.310       9.214       9.097       8.820    
        8.389       7.950       7.577       7.248       6.952       6.657       6.350       6.080       5.821       5.501    
        5.031       4.538       4.073       3.226       2.324       2.847       3.350       3.643       3.808       3.944    
        4.019       4.068       4.117       4.133       4.111       3.996       3.773       3.524       3.162       2.808    
        2.557       2.261       1.945       1.619       1.206      0.8741      0.6505      0.4155      0.1834       0.000    
  25    10.00       9.899       9.762       9.621       9.487       9.372       9.278       9.182       9.037       8.749    
        8.298       7.889       7.603       7.296       6.952       6.647       6.359       6.123       5.881       5.470    
        4.931       4.447       3.703       2.330     -0.5347       2.225       3.020       3.485       3.730       3.872    
        3.958       4.016       4.057       4.062       4.025       3.895       3.658       3.366       3.071       2.775    
        2.489       2.169       1.809       1.464       1.072      0.8018      0.6469      0.4033      0.1496       0.000    
  26    10.00       9.873       9.697       9.539       9.431       9.338       9.245       9.127       8.956       8.601    
        8.182       7.896       7.621       7.315       6.993       6.699       6.428       6.192       5.888       5.450    
        4.977       4.442       3.790       3.046       2.363       2.721       3.193       3.520       3.719       3.851    
        3.932       3.991       4.017       4.009       3.952       3.792       3.524       3.288       3.053       2.734    
        2.440       2.077       1.664       1.293      0.9737      0.7835      0.6110      0.3587      0.1527       0.000    
  27    10.00       9.845       9.658       9.510       9.419       9.298       9.175       9.026       8.798       8.462    
        8.165       7.912       7.633       7.334       7.018       6.785       6.596       6.277       5.894       5.447    
        5.045       4.657       4.130       3.638       3.250       3.306       3.486       3.646       3.772       3.865    
        3.950       3.999       4.006       3.978       3.895       3.710       3.496       3.289       3.014       2.715    
        2.410       1.973       1.499       1.151      0.9285      0.7698      0.5802      0.3787      0.1827       0.000    
  28    10.00       9.825       9.688       9.522       9.368       9.219       9.083       8.907       8.680       8.419    
        8.175       7.949       7.672       7.338       7.057       6.868       6.658       6.307       5.863       5.469    
        5.183       4.891       4.475       4.090       3.841       3.757       3.749       3.798       3.878       3.955    
        4.010       4.022       4.012       3.962       3.850       3.681       3.508       3.263       2.977       2.674    
        2.301       1.889       1.418       1.074      0.9179      0.7661      0.5977      0.3952      0.1833       0.000    
  29    10.00       9.831       9.660       9.485       9.300       9.157       9.003       8.808       8.616       8.409    
        8.191       7.967       7.699       7.416       7.174       6.950       6.670       6.281       5.876       5.569    
        5.324       5.066       4.724       4.379       4.176       4.064       3.994       3.991       4.031       4.056    
        4.059       4.053       4.024       3.952       3.822       3.674       3.511       3.282       2.964       2.580    
        2.238       1.799       1.329       1.058      0.9207      0.7713      0.5929      0.3859      0.1920       0.000    
  30    10.00       9.806       9.634       9.424       9.237       9.105       8.941       8.769       8.621       8.435    
        8.213       7.971       7.726       7.500       7.285       7.032       6.676       6.315       5.989       5.694    
        5.483       5.227       4.914       4.615       4.369       4.271       4.206       4.181       4.158       4.136    
        4.111       4.086       4.037       3.940       3.818       3.699       3.535       3.239       2.845       2.450    
        2.101       1.696       1.338       1.087      0.9415      0.7729      0.5823      0.4043      0.1984       0.000    
  31    10.00       9.781       9.583       9.381       9.212       9.075       8.920       8.768       8.621       8.441    
        8.221       7.979       7.767       7.581       7.379       7.095       6.743       6.427       6.169       5.906    
        5.679       5.389       5.080       4.828       4.578       4.419       4.355       4.293       4.247       4.199    
        4.165       4.116       4.045       3.948       3.829       3.694       3.434       3.101       2.771       2.384    
        2.052       1.647       1.297       1.115      0.9589      0.8000      0.6017      0.4046      0.1919       0.000    
  32    10.00       9.764       9.551       9.379       9.237       9.100       8.938       8.765       8.587       8.418    
        8.202       7.992       7.804       7.599       7.413       7.172       6.898       6.659       6.392       6.119    
        5.890       5.619       5.307       5.034       4.775       4.549       4.464       4.383       4.318       4.251    
        4.202       4.152       4.056       3.933       3.819       3.631       3.308       2.992       2.699       2.344    
        1.957       1.578       1.319       1.178       1.007      0.8067      0.5970      0.3843      0.1918       0.000    
  33    10.00       9.757       9.575       9.437       9.295       9.136       8.942       8.751       8.561       8.367    
        8.188       8.012       7.827       7.632       7.424       7.237       7.037       6.833       6.614       6.347    
        6.080       5.826       5.562       5.244       4.925       4.668       4.540       4.460       4.380       4.295    
        4.234       4.164       4.060       3.938       3.771       3.510       3.177       2.907       2.623       2.208    
        1.853       1.603       1.396       1.228       1.034      0.8223      0.5653      0.3381      0.1524       0.000    
  34    10.00       9.779       9.630       9.501       9.343       9.150       8.946       8.722       8.514       8.352    
        8.191       8.031       7.864       7.663       7.480       7.299       7.125       6.962       6.753       6.482    
        6.230       5.999       5.738       5.407       5.057       4.771       4.605       4.511       4.419       4.325    
        4.243       4.167       4.062       3.911       3.706       3.385       3.058       2.811       2.471       2.103    
        1.882       1.716       1.517       1.300       1.044      0.7459      0.4570      0.2708      0.1123       0.000    
  35    10.00       9.816       9.682       9.551       9.383       9.165       8.933       8.685       8.487       8.348    
        8.241       8.080       7.895       7.682       7.487       7.359       7.231       7.064       6.848       6.590    
        6.349       6.120       5.879       5.510       5.116       4.843       4.661       4.551       4.446       4.338    
        4.255       4.163       4.040       3.845       3.529       3.192       2.972       2.712       2.362       2.137    
        1.982       1.793       1.592       1.381       1.056      0.6347      0.3513      0.2310      0.1173       0.000    
  36    10.00       9.838       9.722       9.596       9.419       9.161       8.878       8.645       8.503       8.395    
        8.250       8.067       7.899       7.711       7.539       7.412       7.290       7.144       6.973       6.734    
        6.484       6.242       5.947       5.553       5.164       4.887       4.713       4.585       4.456       4.344    
        4.252       4.135       3.940       3.652       3.363       3.126       2.916       2.643       2.361       2.210    
        2.052       1.882       1.679       1.406      0.9645      0.5352      0.3303      0.2115      0.1087       0.000    
  37    10.00       9.855       9.766       9.631       9.395       9.114       8.865       8.683       8.565       8.436    
        8.249       8.054       7.909       7.746       7.588       7.466       7.356       7.219       7.040       6.834    
        6.629       6.366       6.000       5.628       5.260       4.949       4.741       4.581       4.465       4.343    
        4.224       4.055       3.767       3.501       3.293       3.089       2.870       2.653       2.448       2.280    
        2.126       1.936       1.705       1.347      0.8856      0.5171      0.3100      0.1970      9.8826E-02   0.000    
  38    10.00       9.877       9.769       9.622       9.379       9.089       8.878       8.744       8.622       8.472    
        8.274       8.069       7.926       7.777       7.620       7.499       7.404       7.286       7.111       6.932    
        6.744       6.447       6.034       5.634       5.277       4.974       4.750       4.573       4.457       4.344    
        4.177       3.902       3.643       3.471       3.263       3.058       2.898       2.712       2.525       2.362    
        2.181       1.921       1.628       1.239      0.7802      0.4968      0.3496      0.2178      9.7758E-02   0.000    
  39    10.00       9.876       9.754       9.601       9.366       9.104       8.914       8.795       8.647       8.482    
        8.322       8.115       7.952       7.811       7.660       7.531       7.425       7.311       7.170       7.009    
        6.795       6.482       6.060       5.614       5.248       4.968       4.717       4.537       4.441       4.336    
        4.089       3.795       3.626       3.428       3.233       3.085       2.950       2.780       2.597       2.444    
        2.182       1.813       1.468       1.046      0.6977      0.5389      0.4013      0.2613      0.1345       0.000    
  40    10.00       9.867       9.760       9.604       9.389       9.170       8.985       8.828       8.653       8.502    
        8.382       8.183       7.978       7.835       7.695       7.552       7.434       7.344       7.222       7.035    
        6.794       6.438       6.011       5.594       5.217       4.928       4.650       4.507       4.421       4.282    
        4.058       3.828       3.599       3.392       3.251       3.121       2.992       2.834       2.664       2.463    
        2.109       1.706       1.331      0.9884      0.7493      0.5855      0.4484      0.3166      0.1555       0.000    
  41    10.00       9.886       9.801       9.649       9.428       9.201       9.026       8.886       8.715       8.534    
        8.393       8.214       8.025       7.890       7.729       7.557       7.455       7.359       7.207       7.007    
        6.761       6.416       5.990       5.582       5.207       4.823       4.563       4.483       4.392       4.287    
        4.105       3.830       3.597       3.430       3.288       3.172       3.030       2.876       2.701       2.388    
        1.973       1.579       1.252      0.9993      0.7922      0.6401      0.4934      0.3486      0.1836       0.000    
  42    10.00       9.915       9.821       9.677       9.487       9.272       9.074       8.931       8.778       8.582    
        8.402       8.230       8.072       7.943       7.774       7.591       7.469       7.342       7.177       6.952    
        6.674       6.299       5.929       5.527       5.039       4.695       4.552       4.489       4.411       4.294    
        4.083       3.842       3.622       3.452       3.337       3.211       3.085       2.919       2.641       2.227    
        1.862       1.568       1.283      0.9959      0.8034      0.6741      0.5332      0.3635      0.2017       0.000    
  43    10.00       9.933       9.833       9.686       9.500       9.323       9.148       8.988       8.802       8.601    
        8.436       8.264       8.108       7.989       7.832       7.630       7.470       7.325       7.100       6.815    
        6.541       6.182       5.838       5.381       4.920       4.689       4.575       4.502       4.426       4.304    
        4.103       3.881       3.669       3.501       3.390       3.265       3.101       2.865       2.458       2.090    
        1.861       1.599       1.299       1.001      0.7967      0.6769      0.5681      0.3936      0.1845       0.000    
  44    10.00       9.926       9.842       9.690       9.522       9.394       9.220       9.005       8.796       8.629    
        8.466       8.296       8.158       8.035       7.855       7.642       7.460       7.287       7.022       6.732    
        6.404       6.044       5.680       5.222       4.873       4.700       4.603       4.538       4.455       4.302    
        4.095       3.917       3.729       3.572       3.459       3.292       3.072       2.735       2.318       2.072    
        1.863       1.589       1.290       1.017      0.8082      0.6798      0.5692      0.3860      0.1701       0.000    
  45    10.00       9.911       9.811       9.689       9.567       9.406       9.226       9.024       8.815       8.650    
        8.482       8.329       8.208       8.070       7.876       7.649       7.444       7.247       6.960       6.618    
        6.240       5.856       5.463       5.123       4.880       4.733       4.638       4.570       4.467       4.342    
        4.161       3.958       3.791       3.631       3.472       3.295       3.054       2.692       2.329       2.042    
        1.802       1.544       1.263       1.018      0.8349      0.7280      0.5624      0.3349      0.1527       0.000    
  46    10.00       9.894       9.790       9.693       9.557       9.375       9.201       9.037       8.833       8.657    
        8.509       8.366       8.246       8.083       7.877       7.675       7.458       7.200       6.889       6.517    
        6.070       5.686       5.371       5.111       4.926       4.796       4.680       4.588       4.507       4.367    
        4.176       4.001       3.838       3.656       3.498       3.326       3.055       2.638       2.255       1.998    
        1.772       1.523       1.258       1.042      0.8999      0.7623      0.5109      0.2512      0.1092       0.000    
  47    10.00       9.887       9.783       9.650       9.493       9.343       9.194       9.017       8.832       8.675    
        8.540       8.413       8.246       8.070       7.885       7.690       7.455       7.154       6.861       6.409    
        5.921       5.620       5.347       5.143       4.971       4.844       4.730       4.618       4.523       4.379    
        4.180       4.007       3.844       3.672       3.533       3.327       2.950       2.575       2.254       1.979    
        1.780       1.544       1.307       1.099      0.9228      0.7007      0.4213      0.2202      9.1705E-02   0.000    
  48    10.00       9.875       9.750       9.609       9.466       9.334       9.183       9.021       8.850       8.696    
        8.559       8.412       8.231       8.049       7.869       7.677       7.452       7.169       6.804       6.354    
        5.931       5.621       5.355       5.167       5.028       4.873       4.758       4.664       4.546       4.352    
        4.158       3.990       3.839       3.711       3.529       3.257       2.897       2.557       2.253       2.010    
        1.796       1.571       1.357       1.121      0.8574      0.5704      0.3607      0.2139      9.6660E-02   0.000    
  49    10.00       9.864       9.728       9.590       9.473       9.336       9.177       9.018       8.880       8.720    
        8.557       8.372       8.195       8.043       7.837       7.651       7.464       7.148       6.786       6.427    
        5.981       5.635       5.370       5.206       5.044       4.877       4.787       4.699       4.514       4.279    
        4.112       3.977       3.867       3.702       3.491       3.247       2.886       2.546       2.307       2.049    
        1.796       1.590       1.362       1.084      0.7602      0.5092      0.3611      0.2330      0.1196       0.000    
  50    10.00       9.869       9.733       9.593       9.466       9.331       9.189       9.033       8.888       8.746    
        8.545       8.353       8.190       7.986       7.778       7.635       7.457       7.212       6.855       6.499    
        6.045       5.610       5.379       5.213       5.043       4.908       4.801       4.683       4.464       4.241    
        4.102       3.991       3.862       3.691       3.496       3.262       2.897       2.548       2.316       2.084    
        1.843       1.582       1.326       1.029      0.7090      0.5212      0.3886      0.2634      0.1589       0.000    

 HEAD WILL BE SAVED ON UNIT   51 AT END OF TIME STEP  82, STRESS PERIOD    2

 DRAWDOWN WILL BE SAVED ON UNIT   52 AT END OF TIME STEP  82, STRESS PERIOD    2
1
  VOLUMETRIC BUDGET FOR ENTIRE MODEL AT END OF TIME STEP 82 IN STRESS PERIOD   2
  ------------------------------------------------------------------------------

     CUMULATIVE VOLUMES      L**3       RATES FOR THIS TIME STEP      L**3/T
     ------------------                 ------------------------

           IN:                                      IN:
           ---                                      ---
             STORAGE =       39570.5742               STORAGE =         442.1074
       CONSTANT HEAD =       32157.3398         CONSTANT HEAD =         420.4226
               WELLS =           0.0000                 WELLS =           0.0000

            TOTAL IN =       71727.9141              TOTAL IN =         862.5300

          OUT:                                     OUT:
          ----                                     ----
             STORAGE =       1.1143E-02               STORAGE =           0.0000
       CONSTANT HEAD =       30727.8965         CONSTANT HEAD =         362.5298
               WELLS =       41000.0000                 WELLS =         500.0000

           TOTAL OUT =       71727.9062             TOTAL OUT =         862.5298

            IN - OUT =       7.8125E-03              IN - OUT =       1.8311E-04

 PERCENT DISCREPANCY =           0.00     PERCENT DISCREPANCY =           0.00






          TIME SUMMARY AT END OF TIME STEP  82 IN STRESS PERIOD    2
                    SECONDS     MINUTES      HOURS       DAYS        YEARS
                    -----------------------------------------------------------
   TIME STEP LENGTH  86400.      1440.0      24.000      1.0000     2.73785E-03
 STRESS PERIOD TIME 7.08480E+06 1.18080E+05  1968.0      82.000     0.22450    
         TOTAL TIME 7.17120E+06 1.19520E+05  1992.0      83.000     0.22724    
1
 
 SOLVING FOR HEAD 

 OUTPUT CONTROL FOR STRESS PERIOD    2   TIME STEP  83
    SAVE HEAD FOR ALL LAYERS
    SAVE DRAWDOWN FOR ALL LAYERS
    SAVE BUDGET
    PRINT HEAD FOR ALL LAYERS
    PRINT BUDGET
 UBDSV1 SAVING "         STORAGE" ON UNIT  53 AT TIME STEP 83, STRESS PERIOD   2
 UBDSV2 SAVING "   CONSTANT HEAD" ON UNIT  53 AT TIME STEP 83, STRESS PERIOD   2
 UBDSV1 SAVING "FLOW RIGHT FACE " ON UNIT  53 AT TIME STEP 83, STRESS PERIOD   2
 UBDSV1 SAVING "FLOW FRONT FACE " ON UNIT  53 AT TIME STEP 83, STRESS PERIOD   2
1
              HEAD IN LAYER   1 AT END OF TIME STEP  83 IN STRESS PERIOD    2
  ---------------------------------------------------------------------------

            1           2           3           4           5           6           7           8           9          10
           11          12          13          14          15          16          17          18          19          20
           21          22          23          24          25          26          27          28          29          30
           31          32          33          34          35          36          37          38          39          40
           41          42          43          44          45          46          47          48          49          50
 ........................................................................................................................
   1    10.00       9.950       9.900       9.841       9.794       9.755       9.703       9.630       9.551       9.479    
        9.319       9.119       8.971       8.807       8.632       8.455       8.291       8.103       7.852       7.603    
        7.432       7.238       6.982       6.723       6.491       6.291       6.005       5.745       5.562       5.371    
        5.208       5.104       4.994       4.869       4.749       4.601       4.442       4.227       3.980       3.710    
        3.360       3.003       2.533       2.017       1.628       1.347       1.137      0.8971      0.5268       0.000    
   2    10.00       9.944       9.891       9.841       9.802       9.763       9.705       9.631       9.559       9.461    
        9.305       9.125       8.959       8.809       8.648       8.465       8.270       8.076       7.843       7.591    
        7.405       7.245       6.972       6.691       6.486       6.258       5.982       5.735       5.524       5.343    
        5.207       5.111       5.018       4.885       4.745       4.598       4.415       4.214       3.975       3.666    
        3.340       3.036       2.543       2.031       1.686       1.436       1.195      0.9266      0.5596       0.000    
   3    10.00       9.935       9.890       9.856       9.818       9.779       9.716       9.628       9.540       9.433    
        9.291       9.132       8.972       8.821       8.628       8.398       8.208       8.041       7.825       7.604    
        7.414       7.185       6.914       6.667       6.443       6.188       5.922       5.677       5.460       5.328    
        5.218       5.127       5.034       4.888       4.740       4.583       4.401       4.177       3.909       3.673    
        3.385       2.971       2.490       2.123       1.831       1.541       1.244      0.9392      0.5305       0.000    
   4    10.00       9.935       9.896       9.864       9.838       9.796       9.724       9.623       9.518       9.412    
        9.276       9.133       8.973       8.782       8.544       8.331       8.194       8.006       7.797       7.624    
        7.362       7.071       6.833       6.613       6.396       6.090       5.795       5.599       5.454       5.342    
        5.243       5.149       5.047       4.876       4.694       4.551       4.359       4.126       3.899       3.693    
        3.366       2.910       2.547       2.239       1.926       1.598       1.240      0.8838      0.4532       0.000    
   5    10.00       9.941       9.904       9.873       9.849       9.806       9.730       9.614       9.497       9.390    
        9.274       9.127       8.920       8.696       8.495       8.326       8.156       7.979       7.784       7.538    
        7.233       6.992       6.795       6.572       6.292       5.974       5.733       5.595       5.476       5.362    
        5.248       5.133       5.015       4.849       4.663       4.491       4.319       4.137       3.932       3.661    
        3.290       2.944       2.635       2.325       1.983       1.601       1.153      0.7436      0.3852       0.000    
   6    10.00       9.950       9.915       9.884       9.852       9.804       9.723       9.597       9.495       9.380    
        9.250       9.067       8.839       8.653       8.466       8.274       8.099       7.940       7.721       7.441    
        7.170       6.941       6.737       6.461       6.157       5.918       5.724       5.596       5.462       5.343    
        5.243       5.116       4.970       4.798       4.617       4.470       4.322       4.158       3.942       3.651    
        3.328       2.995       2.680       2.367       1.997       1.535       1.052      0.6986      0.3598       0.000    
   7    10.00       9.957       9.926       9.894       9.859       9.801       9.691       9.570       9.464       9.321    
        9.187       8.991       8.783       8.591       8.399       8.202       8.031       7.885       7.631       7.333    
        7.087       6.852       6.626       6.358       6.101       5.884       5.715       5.558       5.414       5.323    
        5.221       5.080       4.925       4.755       4.600       4.470       4.332       4.165       3.946       3.683    
        3.363       3.021       2.695       2.350       1.985       1.501       1.006      0.6648      0.3148       0.000    
   8    10.00       9.964       9.936       9.901       9.860       9.767       9.633       9.517       9.383       9.248    
        9.099       8.897       8.720       8.523       8.307       8.112       7.965       7.789       7.547       7.258    
        6.972       6.757       6.569       6.292       6.023       5.830       5.637       5.467       5.371       5.282    
        5.158       5.018       4.888       4.741       4.583       4.450       4.345       4.220       4.008       3.707    
        3.358       3.055       2.751       2.351       1.945       1.404      0.9310      0.6507      0.3013       0.000    
   9    10.00       9.972       9.940       9.900       9.831       9.708       9.564       9.428       9.310       9.170    
        8.993       8.814       8.637       8.447       8.223       8.041       7.902       7.693       7.454       7.156    
        6.909       6.694       6.425       6.139       5.912       5.739       5.548       5.408       5.315       5.212    
        5.100       4.975       4.853       4.724       4.590       4.466       4.365       4.254       4.035       3.710    
        3.390       3.122       2.804       2.420       1.819       1.208      0.8866      0.5500      0.2098       0.000    
  10    10.00       9.972       9.938       9.882       9.776       9.628       9.468       9.362       9.251       9.084    
        8.929       8.751       8.574       8.367       8.159       7.996       7.806       7.590       7.336       7.095    
        6.852       6.519       6.240       6.016       5.825       5.668       5.491       5.351       5.258       5.176    
        5.060       4.924       4.815       4.698       4.580       4.497       4.398       4.269       4.019       3.697    
        3.449       3.215       2.851       2.272       1.576       1.134      0.8038      0.4910      0.2450       0.000    
  11    10.00       9.971       9.927       9.840       9.719       9.554       9.412       9.323       9.189       9.046    
        8.898       8.710       8.498       8.275       8.100       7.922       7.744       7.511       7.264       7.027    
        6.674       6.354       6.134       5.933       5.748       5.574       5.405       5.297       5.222       5.140    
        5.005       4.880       4.793       4.689       4.596       4.504       4.391       4.251       4.016       3.761    
        3.501       3.196       2.800       2.161       1.510       1.065      0.7526      0.5712      0.3157       0.000    
  12    10.00       9.969       9.906       9.794       9.636       9.471       9.358       9.269       9.151       9.023    
        8.859       8.659       8.445       8.248       8.069       7.873       7.667       7.427       7.176       6.849    
        6.501       6.259       6.042       5.837       5.632       5.460       5.343       5.265       5.166       5.057    
        4.937       4.849       4.772       4.692       4.612       4.519       4.399       4.232       4.016       3.788    
        3.509       3.177       2.634       1.915       1.361       1.048      0.8349      0.6059      0.3456       0.000    
  13    10.00       9.959       9.861       9.706       9.541       9.399       9.307       9.229       9.128       9.004    
        8.830       8.621       8.424       8.267       8.060       7.818       7.577       7.317       7.035       6.716    
        6.411       6.149       5.912       5.699       5.502       5.378       5.307       5.192       5.064       4.967    
        4.893       4.825       4.757       4.692       4.614       4.534       4.427       4.237       4.018       3.748    
        3.427       3.007       2.376       1.794       1.392       1.126      0.8773      0.6072      0.3002       0.000    
  14    10.00       9.924       9.784       9.612       9.459       9.347       9.286       9.213       9.117       8.979    
        8.787       8.608       8.447       8.282       8.045       7.759       7.500       7.205       6.893       6.560    
        6.264       6.002       5.769       5.560       5.408       5.322       5.234       5.092       4.985       4.914    
        4.863       4.798       4.742       4.682       4.612       4.549       4.423       4.227       3.998       3.660    
        3.283       2.787       2.302       1.879       1.480       1.168      0.8926      0.6076      0.2708       0.000    
  15    10.00       9.858       9.701       9.548       9.425       9.339       9.270       9.202       9.106       8.977    
        8.807       8.632       8.472       8.238       7.959       7.683       7.395       7.090       6.718       6.365    
        6.091       5.837       5.620       5.462       5.348       5.259       5.148       5.017       4.930       4.881    
        4.820       4.769       4.727       4.669       4.606       4.538       4.401       4.218       3.927       3.563    
        3.174       2.731       2.340       1.904       1.569       1.237      0.9038      0.6020      0.2471       0.000    
  16    10.00       9.834       9.664       9.523       9.417       9.339       9.268       9.205       9.111       8.977    
        8.817       8.649       8.449       8.149       7.843       7.614       7.330       6.921       6.497       6.171    
        5.891       5.681       5.503       5.370       5.245       5.165       5.042       4.937       4.873       4.816    
        4.773       4.743       4.699       4.646       4.589       4.509       4.384       4.161       3.845       3.518    
        3.187       2.763       2.325       1.942       1.627       1.278      0.9016      0.5399      0.2034       0.000    
  17    10.00       9.812       9.641       9.527       9.433       9.353       9.284       9.212       9.110       8.985    
        8.834       8.621       8.347       8.023       7.766       7.548       7.198       6.737       6.309       5.996    
        5.773       5.539       5.343       5.200       5.097       4.995       4.889       4.825       4.774       4.747    
        4.735       4.706       4.662       4.610       4.549       4.463       4.316       4.121       3.869       3.529    
        3.154       2.709       2.305       1.968       1.645       1.287      0.9209      0.5627      0.2381       0.000    
  18    10.00       9.801       9.640       9.542       9.456       9.379       9.310       9.223       9.123       8.988    
        8.807       8.554       8.249       7.974       7.722       7.401       6.995       6.575       6.198       5.890    
        5.616       5.317       5.148       5.028       4.940       4.823       4.756       4.701       4.669       4.680    
        4.679       4.655       4.611       4.553       4.491       4.400       4.262       4.106       3.889       3.578    
        3.093       2.620       2.291       1.970       1.696       1.321      0.9167      0.5525      0.2382       0.000    
  19    10.00       9.810       9.675       9.574       9.483       9.405       9.324       9.243       9.150       8.994    
        8.780       8.509       8.207       7.902       7.567       7.219       6.844       6.440       6.060       5.734    
        5.416       5.157       5.022       4.931       4.804       4.701       4.644       4.594       4.587       4.593    
        4.604       4.592       4.540       4.488       4.439       4.372       4.244       4.075       3.857       3.492    
        3.005       2.604       2.277       1.963       1.656       1.268      0.8817      0.5497      0.2593       0.000    
  20    10.00       9.820       9.705       9.617       9.528       9.436       9.340       9.253       9.159       8.999    
        8.767       8.485       8.133       7.735       7.352       7.069       6.692       6.259       5.927       5.605    
        5.321       5.107       4.945       4.805       4.642       4.570       4.534       4.510       4.516       4.518    
        4.525       4.505       4.465       4.439       4.402       4.335       4.188       4.020       3.771       3.362    
        2.944       2.626       2.249       1.889       1.554       1.172      0.8846      0.5462      0.2424       0.000    
  21    10.00       9.846       9.743       9.653       9.557       9.469       9.362       9.267       9.166       8.985    
        8.733       8.388       7.948       7.483       7.129       6.872       6.519       6.204       5.893       5.545    
        5.275       5.039       4.835       4.570       4.435       4.399       4.342       4.383       4.419       4.416    
        4.413       4.388       4.388       4.378       4.352       4.263       4.121       3.977       3.616       3.191    
        2.880       2.536       2.150       1.815       1.460       1.125      0.8011      0.4812      0.2419       0.000    
  22    10.00       9.879       9.771       9.673       9.580       9.496       9.375       9.252       9.133       8.946    
        8.637       8.203       7.707       7.273       6.970       6.703       6.435       6.208       5.865       5.524    
        5.240       4.901       4.535       4.259       4.158       4.058       4.072       4.179       4.218       4.239    
        4.257       4.257       4.288       4.311       4.287       4.198       4.061       3.793       3.382       3.112    
        2.777       2.405       2.059       1.736       1.433       1.035      0.6952      0.4612      0.2594       0.000    
  23    10.00       9.881       9.776       9.688       9.590       9.479       9.341       9.229       9.125       8.889    
        8.510       8.043       7.592       7.214       6.904       6.678       6.426       6.128       5.801       5.528    
        5.134       4.637       4.245       3.965       3.554       3.553       3.773       3.893       3.981       4.069    
        4.108       4.142       4.184       4.221       4.201       4.114       3.914       3.608       3.278       2.945    
        2.624       2.316       1.983       1.729       1.345      0.9412      0.6760      0.4433      0.2304       0.000    
  24    10.00       9.907       9.788       9.673       9.558       9.431       9.308       9.211       9.094       8.816    
        8.384       7.944       7.571       7.240       6.944       6.648       6.341       6.070       5.811       5.491    
        5.020       4.527       4.062       3.215       2.312       2.836       3.339       3.632       3.797       3.933    
        4.007       4.056       4.105       4.122       4.100       3.986       3.764       3.516       3.155       2.803    
        2.552       2.257       1.942       1.616       1.204      0.8730      0.6498      0.4150      0.1832       0.000    
  25    10.00       9.898       9.761       9.620       9.486       9.370       9.276       9.179       9.034       8.746    
        8.293       7.883       7.597       7.288       6.944       6.638       6.350       6.113       5.872       5.460    
        4.921       4.436       3.692       2.318     -0.5470       2.213       3.008       3.474       3.718       3.860    
        3.946       4.004       4.046       4.051       4.014       3.885       3.649       3.358       3.064       2.769    
        2.485       2.166       1.806       1.462       1.071      0.8008      0.6461      0.4028      0.1494       0.000    
  26    10.00       9.872       9.697       9.537       9.430       9.336       9.243       9.124       8.953       8.597    
        8.177       7.890       7.614       7.307       6.985       6.690       6.419       6.183       5.879       5.440    
        4.966       4.431       3.779       3.035       2.351       2.709       3.181       3.508       3.708       3.839    
        3.920       3.980       4.006       3.998       3.941       3.782       3.515       3.280       3.046       2.729    
        2.435       2.074       1.661       1.291      0.9724      0.7825      0.6102      0.3582      0.1525       0.000    
  27    10.00       9.845       9.657       9.508       9.418       9.295       9.173       9.023       8.794       8.457    
        8.160       7.906       7.626       7.326       7.010       6.776       6.588       6.268       5.884       5.437    
        5.035       4.646       4.119       3.627       3.238       3.295       3.474       3.634       3.761       3.854    
        3.939       3.988       3.995       3.967       3.884       3.700       3.487       3.281       3.008       2.709    
        2.406       1.970       1.497       1.149      0.9272      0.7688      0.5795      0.3782      0.1825       0.000    
  28    10.00       9.824       9.687       9.520       9.366       9.216       9.080       8.904       8.676       8.415    
        8.170       7.943       7.666       7.331       7.050       6.860       6.649       6.298       5.854       5.459    
        5.173       4.880       4.464       4.079       3.830       3.746       3.738       3.786       3.867       3.944    
        3.999       4.010       4.001       3.951       3.840       3.672       3.500       3.255       2.970       2.669    
        2.296       1.885       1.416       1.072      0.9166      0.7651      0.5969      0.3947      0.1831       0.000    
  29    10.00       9.830       9.659       9.483       9.298       9.154       9.000       8.804       8.612       8.404    
        8.186       7.961       7.692       7.409       7.167       6.942       6.661       6.273       5.867       5.559    
        5.314       5.056       4.713       4.368       4.165       4.053       3.982       3.980       4.019       4.045    
        4.048       4.042       4.013       3.941       3.812       3.665       3.503       3.274       2.957       2.575    
        2.234       1.796       1.327       1.057      0.9194      0.7703      0.5922      0.3854      0.1917       0.000    
  30    10.00       9.806       9.633       9.422       9.234       9.102       8.938       8.766       8.617       8.431    
        8.208       7.965       7.720       7.494       7.278       7.024       6.668       6.306       5.980       5.685    
        5.473       5.217       4.903       4.604       4.358       4.260       4.195       4.170       4.147       4.125    
        4.100       4.075       4.026       3.930       3.808       3.690       3.527       3.232       2.839       2.445    
        2.097       1.693       1.336       1.085      0.9402      0.7719      0.5816      0.4038      0.1982       0.000    
  31    10.00       9.780       9.581       9.379       9.210       9.073       8.917       8.764       8.617       8.437    
        8.216       7.973       7.761       7.574       7.372       7.087       6.735       6.418       6.160       5.897    
        5.669       5.379       5.070       4.817       4.567       4.408       4.344       4.282       4.236       4.189    
        4.155       4.105       4.034       3.938       3.819       3.684       3.426       3.094       2.765       2.379    
        2.048       1.645       1.296       1.113      0.9576      0.7989      0.6009      0.4041      0.1916       0.000    
  32    10.00       9.764       9.550       9.377       9.234       9.097       8.935       8.762       8.584       8.413    
        8.197       7.987       7.799       7.593       7.406       7.165       6.890       6.651       6.384       6.110    
        5.881       5.610       5.297       5.024       4.765       4.539       4.454       4.372       4.307       4.241    
        4.191       4.142       4.046       3.923       3.810       3.622       3.300       2.985       2.694       2.340    
        1.954       1.576       1.317       1.176       1.006      0.8057      0.5962      0.3838      0.1915       0.000    
  33    10.00       9.757       9.574       9.435       9.293       9.134       8.939       8.747       8.557       8.363    
        8.184       8.007       7.821       7.626       7.418       7.231       7.029       6.825       6.606       6.338    
        6.071       5.817       5.552       5.234       4.915       4.658       4.530       4.450       4.370       4.285    
        4.224       4.154       4.050       3.929       3.762       3.502       3.170       2.902       2.618       2.204    
        1.851       1.601       1.394       1.227       1.032      0.8212      0.5646      0.3376      0.1522       0.000    
  34    10.00       9.779       9.629       9.499       9.341       9.147       8.943       8.719       8.510       8.348    
        8.187       8.026       7.858       7.657       7.473       7.292       7.118       6.955       6.745       6.474    
        6.222       5.990       5.728       5.398       5.048       4.761       4.595       4.501       4.410       4.316    
        4.234       4.158       4.053       3.903       3.698       3.378       3.052       2.806       2.467       2.100    
        1.879       1.714       1.515       1.298       1.042      0.7450      0.4564      0.2705      0.1122       0.000    
  35    10.00       9.815       9.681       9.549       9.381       9.163       8.930       8.682       8.483       8.344    
        8.236       8.075       7.889       7.676       7.481       7.352       7.224       7.057       6.841       6.582    
        6.341       6.112       5.871       5.501       5.106       4.834       4.651       4.542       4.436       4.329    
        4.246       4.155       4.031       3.837       3.522       3.187       2.967       2.707       2.358       2.135    
        1.979       1.791       1.590       1.379       1.055      0.6340      0.3508      0.2308      0.1172       0.000    
  36    10.00       9.837       9.721       9.595       9.417       9.159       8.875       8.642       8.499       8.391    
        8.245       8.062       7.893       7.705       7.533       7.405       7.284       7.137       6.966       6.727    
        6.476       6.234       5.939       5.544       5.154       4.878       4.704       4.576       4.447       4.335    
        4.243       4.127       3.933       3.645       3.357       3.121       2.912       2.640       2.358       2.207    
        2.049       1.880       1.677       1.405      0.9634      0.5345      0.3299      0.2112      0.1086       0.000    
  37    10.00       9.855       9.765       9.630       9.393       9.112       8.862       8.680       8.561       8.432    
        8.244       8.049       7.904       7.741       7.582       7.460       7.349       7.213       7.033       6.827    
        6.622       6.358       5.992       5.620       5.252       4.940       4.733       4.573       4.457       4.335    
        4.216       4.048       3.761       3.496       3.288       3.084       2.866       2.650       2.445       2.277    
        2.124       1.933       1.703       1.345      0.8846      0.5165      0.3096      0.1968      9.8720E-02   0.000    
  38    10.00       9.877       9.769       9.621       9.377       9.087       8.876       8.741       8.618       8.468    
        8.269       8.064       7.921       7.772       7.614       7.493       7.398       7.279       7.104       6.925    
        6.737       6.439       6.026       5.626       5.269       4.966       4.743       4.566       4.450       4.337    
        4.170       3.896       3.638       3.466       3.258       3.054       2.894       2.709       2.522       2.359    
        2.178       1.919       1.626       1.237      0.7794      0.4963      0.3492      0.2176      9.7661E-02   0.000    
  39    10.00       9.876       9.754       9.600       9.364       9.102       8.911       8.792       8.643       8.478    
        8.318       8.111       7.947       7.806       7.654       7.526       7.419       7.305       7.164       7.002    
        6.789       6.475       6.053       5.607       5.241       4.962       4.710       4.531       4.435       4.330    
        4.083       3.790       3.621       3.424       3.229       3.081       2.946       2.777       2.594       2.441    
        2.179       1.811       1.466       1.045      0.6970      0.5384      0.4009      0.2611      0.1343       0.000    
  40    10.00       9.867       9.760       9.603       9.387       9.168       8.982       8.825       8.650       8.498    
        8.378       8.178       7.973       7.830       7.690       7.546       7.429       7.338       7.216       7.029    
        6.788       6.431       6.004       5.588       5.211       4.922       4.644       4.501       4.416       4.276    
        4.053       3.824       3.595       3.388       3.248       3.118       2.989       2.830       2.661       2.460    
        2.106       1.704       1.330      0.9875      0.7486      0.5850      0.4480      0.3163      0.1553       0.000    
  41    10.00       9.885       9.800       9.648       9.427       9.199       9.023       8.883       8.712       8.531    
        8.389       8.210       8.021       7.886       7.724       7.552       7.449       7.354       7.201       7.001    
        6.755       6.410       5.985       5.576       5.201       4.818       4.558       4.478       4.388       4.282    
        4.100       3.826       3.593       3.426       3.285       3.168       3.026       2.873       2.698       2.386    
        1.971       1.578       1.251      0.9984      0.7915      0.6396      0.4930      0.3484      0.1835       0.000    
  42    10.00       9.914       9.821       9.676       9.486       9.270       9.072       8.929       8.775       8.579    
        8.398       8.227       8.068       7.939       7.770       7.586       7.464       7.337       7.171       6.947    
        6.668       6.294       5.924       5.522       5.034       4.690       4.548       4.485       4.406       4.290    
        4.078       3.838       3.618       3.449       3.333       3.208       3.082       2.916       2.638       2.224    
        1.861       1.566       1.281      0.9951      0.8027      0.6736      0.5328      0.3632      0.2016       0.000    
  43    10.00       9.933       9.833       9.685       9.499       9.321       9.146       8.986       8.799       8.599    
        8.433       8.261       8.104       7.985       7.828       7.625       7.465       7.320       7.095       6.810    
        6.537       6.178       5.834       5.377       4.916       4.685       4.571       4.498       4.422       4.300    
        4.099       3.877       3.665       3.497       3.387       3.262       3.097       2.862       2.456       2.088    
        1.859       1.598       1.298       1.000      0.7960      0.6764      0.5677      0.3933      0.1843       0.000    
  44    10.00       9.926       9.842       9.689       9.521       9.393       9.219       9.004       8.794       8.627    
        8.463       8.293       8.155       8.031       7.851       7.638       7.456       7.283       7.018       6.728    
        6.401       6.040       5.676       5.218       4.869       4.696       4.600       4.534       4.451       4.299    
        4.091       3.913       3.726       3.569       3.455       3.288       3.070       2.732       2.316       2.071    
        1.862       1.588       1.289       1.016      0.8076      0.6793      0.5687      0.3857      0.1700       0.000    
  45    10.00       9.911       9.811       9.689       9.567       9.405       9.225       9.022       8.813       8.648    
        8.480       8.327       8.206       8.067       7.873       7.646       7.441       7.244       6.957       6.615    
        6.237       5.852       5.460       5.120       4.877       4.729       4.635       4.566       4.463       4.338    
        4.158       3.955       3.787       3.628       3.469       3.292       3.051       2.690       2.327       2.040    
        1.801       1.543       1.262       1.017      0.8343      0.7275      0.5620      0.3346      0.1526       0.000    
  46    10.00       9.894       9.790       9.693       9.557       9.374       9.200       9.035       8.831       8.655    
        8.507       8.364       8.244       8.080       7.874       7.673       7.455       7.198       6.886       6.514    
        6.067       5.683       5.367       5.108       4.922       4.792       4.676       4.584       4.503       4.363    
        4.173       3.998       3.835       3.653       3.495       3.323       3.053       2.636       2.254       1.997    
        1.771       1.522       1.257       1.042      0.8993      0.7618      0.5106      0.2510      0.1091       0.000    
  47    10.00       9.887       9.782       9.650       9.492       9.343       9.193       9.016       8.831       8.674    
        8.538       8.411       8.244       8.068       7.883       7.688       7.452       7.152       6.859       6.406    
        5.918       5.617       5.344       5.140       4.968       4.841       4.727       4.614       4.519       4.375    
        4.177       4.004       3.841       3.669       3.530       3.324       2.948       2.573       2.252       1.978    
        1.779       1.543       1.307       1.098      0.9223      0.7002      0.4211      0.2201      9.1653E-02   0.000    
  48    10.00       9.875       9.749       9.609       9.466       9.333       9.182       9.020       8.849       8.695    
        8.557       8.410       8.229       8.047       7.867       7.675       7.450       7.167       6.802       6.351    
        5.928       5.618       5.352       5.164       5.025       4.870       4.754       4.661       4.543       4.349    
        4.155       3.987       3.836       3.708       3.526       3.254       2.895       2.556       2.252       2.009    
        1.795       1.570       1.357       1.121      0.8569      0.5701      0.3605      0.2138      9.6611E-02   0.000    
  49    10.00       9.864       9.728       9.589       9.473       9.336       9.176       9.017       8.879       8.719    
        8.555       8.371       8.193       8.041       7.835       7.649       7.462       7.145       6.784       6.425    
        5.978       5.633       5.368       5.203       5.041       4.874       4.784       4.696       4.511       4.276    
        4.109       3.974       3.864       3.699       3.489       3.245       2.884       2.545       2.306       2.048    
        1.796       1.589       1.361       1.083      0.7598      0.5089      0.3609      0.2329      0.1195       0.000    
  50    10.00       9.869       9.733       9.592       9.465       9.330       9.188       9.032       8.886       8.744    
        8.544       8.351       8.188       7.984       7.776       7.633       7.455       7.210       6.852       6.497    
        6.042       5.607       5.377       5.210       5.040       4.905       4.797       4.680       4.461       4.238    
        4.099       3.988       3.860       3.688       3.493       3.260       2.895       2.547       2.315       2.083    
        1.842       1.582       1.325       1.028      0.7086      0.5209      0.3884      0.2633      0.1588       0.000    

 HEAD WILL BE SAVED ON UNIT   51 AT END OF TIME STEP  83, STRESS PERIOD    2

 DRAWDOWN WILL BE SAVED ON UNIT   52 AT END OF TIME STEP  83, STRESS PERIOD    2
1
  VOLUMETRIC BUDGET FOR ENTIRE MODEL AT END OF TIME STEP 83 IN STRESS PERIOD   2
  ------------------------------------------------------------------------------

     CUMULATIVE VOLUMES      L**3       RATES FOR THIS TIME STEP      L**3/T
     ------------------                 ------------------------

           IN:                                      IN:
           ---                                      ---
             STORAGE =       40011.2891               STORAGE =         440.7147
       CONSTANT HEAD =       32578.7930         CONSTANT HEAD =         421.4529
               WELLS =           0.0000                 WELLS =           0.0000

            TOTAL IN =       72590.0781              TOTAL IN =         862.1676

          OUT:                                     OUT:
          ----                                     ----
             STORAGE =       1.1143E-02               STORAGE =           0.0000
       CONSTANT HEAD =       31090.0645         CONSTANT HEAD =         362.1680
               WELLS =       41500.0000                 WELLS =         500.0000

           TOTAL OUT =       72590.0781             TOTAL OUT =         862.1680

            IN - OUT =           0.0000              IN - OUT =      -3.6621E-04

 PERCENT DISCREPANCY =           0.00     PERCENT DISCREPANCY =           0.00






          TIME SUMMARY AT END OF TIME STEP  83 IN STRESS PERIOD    2
                    SECONDS     MINUTES      HOURS       DAYS        YEARS
                    -----------------------------------------------------------
   TIME STEP LENGTH  86400.      1440.0      24.000      1.0000     2.73785E-03
 STRESS PERIOD TIME 7.17120E+06 1.19520E+05  1992.0      83.000     0.22724    
         TOTAL TIME 7.25760E+06 1.20960E+05  2016.0      84.000     0.22998    
1
 
 SOLVING FOR HEAD 

 OUTPUT CONTROL FOR STRESS PERIOD    2   TIME STEP  84
    SAVE HEAD FOR ALL LAYERS
    SAVE DRAWDOWN FOR ALL LAYERS
    SAVE BUDGET
    PRINT HEAD FOR ALL LAYERS
    PRINT BUDGET
 UBDSV1 SAVING "         STORAGE" ON UNIT  53 AT TIME STEP 84, STRESS PERIOD   2
 UBDSV2 SAVING "   CONSTANT HEAD" ON UNIT  53 AT TIME STEP 84, STRESS PERIOD   2
 UBDSV1 SAVING "FLOW RIGHT FACE " ON UNIT  53 AT TIME STEP 84, STRESS PERIOD   2
 UBDSV1 SAVING "FLOW FRONT FACE " ON UNIT  53 AT TIME STEP 84, STRESS PERIOD   2
1
              HEAD IN LAYER   1 AT END OF TIME STEP  84 IN STRESS PERIOD    2
  ---------------------------------------------------------------------------

            1           2           3           4           5           6           7           8           9          10
           11          12          13          14          15          16          17          18          19          20
           21          22          23          24          25          26          27          28          29          30
           31          32          33          34          35          36          37          38          39          40
           41          42          43          44          45          46          47          48          49          50
 ........................................................................................................................
   1    10.00       9.950       9.899       9.840       9.794       9.754       9.702       9.630       9.551       9.478    
        9.318       9.117       8.969       8.805       8.630       8.453       8.288       8.100       7.849       7.599    
        7.428       7.233       6.978       6.718       6.486       6.286       6.000       5.740       5.557       5.366    
        5.203       5.099       4.988       4.863       4.744       4.596       4.437       4.222       3.976       3.706    
        3.357       3.000       2.530       2.015       1.626       1.346       1.136      0.8963      0.5263       0.000    
   2    10.00       9.944       9.891       9.840       9.801       9.763       9.705       9.631       9.558       9.460    
        9.303       9.124       8.958       8.807       8.645       8.463       8.267       8.073       7.839       7.587    
        7.401       7.241       6.967       6.686       6.481       6.253       5.977       5.729       5.518       5.338    
        5.201       5.106       5.013       4.880       4.740       4.593       4.410       4.210       3.971       3.663    
        3.336       3.033       2.540       2.029       1.685       1.435       1.194      0.9258      0.5591       0.000    
   3    10.00       9.935       9.890       9.855       9.818       9.778       9.716       9.628       9.539       9.432    
        9.290       9.131       8.970       8.819       8.626       8.396       8.205       8.037       7.821       7.600    
        7.410       7.181       6.910       6.662       6.438       6.183       5.916       5.671       5.454       5.322    
        5.212       5.121       5.028       4.882       4.734       4.577       4.397       4.172       3.905       3.669    
        3.381       2.968       2.487       2.121       1.829       1.540       1.243      0.9383      0.5301       0.000    
   4    10.00       9.935       9.895       9.864       9.838       9.796       9.724       9.622       9.517       9.411    
        9.275       9.132       8.971       8.780       8.541       8.328       8.191       8.002       7.793       7.620    
        7.358       7.066       6.828       6.608       6.391       6.084       5.789       5.593       5.448       5.336    
        5.238       5.143       5.041       4.870       4.688       4.546       4.354       4.121       3.895       3.689    
        3.362       2.907       2.545       2.237       1.924       1.596       1.239      0.8830      0.4528       0.000    
   5    10.00       9.941       9.904       9.873       9.849       9.806       9.729       9.613       9.496       9.389    
        9.273       9.125       8.918       8.694       8.492       8.323       8.152       7.975       7.780       7.534    
        7.228       6.987       6.790       6.567       6.286       5.968       5.727       5.588       5.470       5.356    
        5.242       5.127       5.009       4.843       4.658       4.485       4.313       4.132       3.927       3.657    
        3.286       2.940       2.632       2.322       1.982       1.600       1.152      0.7429      0.3848       0.000    
   6    10.00       9.950       9.915       9.884       9.852       9.804       9.722       9.596       9.494       9.379    
        9.249       9.065       8.837       8.650       8.463       8.270       8.095       7.937       7.717       7.437    
        7.165       6.936       6.732       6.455       6.151       5.912       5.717       5.589       5.456       5.336    
        5.236       5.110       4.964       4.792       4.611       4.464       4.317       4.153       3.938       3.646    
        3.324       2.991       2.677       2.364       1.995       1.533       1.051      0.6979      0.3595       0.000    
   7    10.00       9.957       9.925       9.893       9.858       9.801       9.690       9.569       9.463       9.320    
        9.186       8.989       8.781       8.589       8.395       8.198       8.027       7.881       7.627       7.329    
        7.082       6.847       6.621       6.352       6.095       5.878       5.708       5.551       5.407       5.317    
        5.215       5.073       4.919       4.749       4.594       4.464       4.326       4.160       3.941       3.679    
        3.359       3.017       2.692       2.348       1.983       1.499       1.005      0.6641      0.3145       0.000    
   8    10.00       9.964       9.936       9.901       9.860       9.767       9.632       9.516       9.382       9.246    
        9.097       8.894       8.717       8.520       8.303       8.108       7.961       7.785       7.543       7.253    
        6.966       6.751       6.563       6.285       6.016       5.823       5.631       5.460       5.364       5.275    
        5.152       5.011       4.881       4.735       4.577       4.444       4.339       4.214       4.003       3.703    
        3.354       3.051       2.748       2.349       1.943       1.402      0.9301      0.6501      0.3009       0.000    
   9    10.00       9.972       9.940       9.900       9.831       9.707       9.563       9.427       9.309       9.168    
        8.991       8.811       8.634       8.443       8.219       8.037       7.898       7.688       7.449       7.151    
        6.903       6.688       6.418       6.132       5.905       5.732       5.541       5.401       5.308       5.205    
        5.093       4.968       4.846       4.717       4.583       4.460       4.359       4.248       4.030       3.705    
        3.386       3.118       2.801       2.417       1.817       1.207      0.8857      0.5494      0.2096       0.000    
  10    10.00       9.972       9.938       9.882       9.775       9.628       9.467       9.361       9.249       9.081    
        8.927       8.748       8.571       8.364       8.155       7.991       7.801       7.585       7.331       7.089    
        6.846       6.512       6.233       6.009       5.817       5.661       5.484       5.343       5.250       5.169    
        5.052       4.916       4.808       4.691       4.573       4.491       4.391       4.263       4.013       3.692    
        3.445       3.211       2.847       2.269       1.574       1.132      0.8030      0.4904      0.2447       0.000    
  11    10.00       9.971       9.927       9.839       9.719       9.553       9.410       9.321       9.187       9.044    
        8.895       8.707       8.494       8.271       8.096       7.918       7.739       7.506       7.258       7.021    
        6.667       6.347       6.126       5.926       5.740       5.566       5.397       5.289       5.214       5.132    
        4.997       4.872       4.785       4.681       4.589       4.497       4.384       4.245       4.010       3.756    
        3.497       3.192       2.796       2.158       1.508       1.063      0.7517      0.5706      0.3153       0.000    
  12    10.00       9.969       9.906       9.793       9.635       9.470       9.356       9.267       9.149       9.020    
        8.856       8.655       8.441       8.244       8.065       7.868       7.662       7.421       7.169       6.842    
        6.493       6.252       6.034       5.829       5.624       5.451       5.335       5.256       5.158       5.049    
        4.929       4.840       4.764       4.684       4.604       4.512       4.392       4.226       4.010       3.782    
        3.504       3.173       2.631       1.912       1.359       1.046      0.8340      0.6052      0.3452       0.000    
  13    10.00       9.958       9.860       9.705       9.540       9.397       9.305       9.226       9.126       9.001    
        8.827       8.617       8.420       8.263       8.055       7.813       7.571       7.311       7.028       6.708    
        6.403       6.141       5.904       5.691       5.494       5.369       5.299       5.183       5.056       4.958    
        4.884       4.816       4.748       4.684       4.607       4.527       4.420       4.230       4.012       3.742    
        3.422       3.003       2.373       1.791       1.390       1.124      0.8763      0.6065      0.2998       0.000    
  14    10.00       9.924       9.783       9.611       9.458       9.345       9.284       9.211       9.114       8.976    
        8.784       8.604       8.443       8.278       8.041       7.754       7.494       7.199       6.886       6.553    
        6.257       5.994       5.761       5.551       5.399       5.314       5.225       5.083       4.977       4.905    
        4.854       4.789       4.733       4.673       4.604       4.541       4.415       4.220       3.991       3.654    
        3.278       2.783       2.299       1.876       1.478       1.167      0.8915      0.6069      0.2705       0.000    
  15    10.00       9.858       9.701       9.547       9.423       9.337       9.268       9.199       9.103       8.974    
        8.804       8.628       8.468       8.233       7.954       7.677       7.389       7.083       6.710       6.357    
        6.082       5.828       5.611       5.452       5.339       5.250       5.139       5.008       4.921       4.872    
        4.811       4.760       4.718       4.661       4.598       4.529       4.394       4.211       3.920       3.557    
        3.169       2.727       2.337       1.902       1.567       1.235      0.9027      0.6013      0.2468       0.000    
  16    10.00       9.834       9.663       9.522       9.416       9.337       9.266       9.202       9.109       8.974    
        8.814       8.645       8.445       8.144       7.837       7.607       7.323       6.914       6.489       6.162    
        5.882       5.672       5.494       5.361       5.235       5.156       5.033       4.927       4.863       4.807    
        4.764       4.734       4.690       4.637       4.580       4.501       4.376       4.154       3.838       3.512    
        3.181       2.759       2.322       1.939       1.624       1.276      0.9005      0.5392      0.2031       0.000    
  17    10.00       9.811       9.640       9.526       9.431       9.351       9.282       9.210       9.108       8.982    
        8.831       8.618       8.343       8.018       7.760       7.542       7.191       6.729       6.301       5.987    
        5.764       5.530       5.333       5.190       5.088       4.985       4.880       4.816       4.764       4.737    
        4.725       4.697       4.653       4.601       4.540       4.454       4.308       4.114       3.862       3.523    
        3.149       2.705       2.302       1.965       1.643       1.286      0.9198      0.5620      0.2378       0.000    
  18    10.00       9.800       9.639       9.541       9.455       9.378       9.308       9.221       9.121       8.985    
        8.804       8.550       8.244       7.968       7.716       7.395       6.988       6.566       6.189       5.881    
        5.606       5.307       5.138       5.019       4.930       4.813       4.746       4.691       4.659       4.670    
        4.669       4.645       4.601       4.543       4.482       4.391       4.254       4.098       3.882       3.571    
        3.088       2.616       2.287       1.967       1.694       1.319      0.9156      0.5519      0.2379       0.000    
  19    10.00       9.809       9.674       9.573       9.482       9.404       9.322       9.241       9.148       8.991    
        8.777       8.505       8.202       7.896       7.560       7.212       6.837       6.431       6.051       5.725    
        5.406       5.147       5.012       4.921       4.794       4.691       4.634       4.584       4.577       4.583    
        4.594       4.583       4.530       4.479       4.430       4.362       4.235       4.067       3.849       3.486    
        3.000       2.600       2.274       1.960       1.654       1.267      0.8806      0.5491      0.2590       0.000    
  20    10.00       9.819       9.704       9.615       9.527       9.435       9.338       9.250       9.157       8.997    
        8.763       8.481       8.128       7.729       7.345       7.061       6.684       6.250       5.918       5.595    
        5.311       5.097       4.934       4.795       4.632       4.560       4.524       4.500       4.505       4.508    
        4.515       4.495       4.455       4.429       4.393       4.326       4.179       4.011       3.764       3.356    
        2.939       2.621       2.245       1.887       1.552       1.170      0.8836      0.5456      0.2422       0.000    
  21    10.00       9.845       9.742       9.652       9.556       9.467       9.361       9.265       9.163       8.982    
        8.730       8.383       7.942       7.477       7.121       6.864       6.511       6.195       5.884       5.535    
        5.265       5.028       4.825       4.560       4.425       4.388       4.332       4.372       4.408       4.406    
        4.403       4.378       4.378       4.368       4.342       4.253       4.112       3.968       3.609       3.186    
        2.875       2.532       2.147       1.813       1.458       1.123      0.8001      0.4806      0.2417       0.000    
  22    10.00       9.879       9.770       9.672       9.579       9.495       9.373       9.250       9.130       8.943    
        8.633       8.197       7.701       7.266       6.962       6.695       6.427       6.199       5.856       5.514    
        5.230       4.891       4.524       4.249       4.147       4.047       4.061       4.168       4.207       4.228    
        4.246       4.246       4.277       4.301       4.277       4.188       4.052       3.785       3.376       3.106    
        2.772       2.402       2.055       1.734       1.431       1.034      0.6944      0.4606      0.2592       0.000    
  23    10.00       9.880       9.775       9.687       9.588       9.477       9.340       9.227       9.122       8.886    
        8.506       8.037       7.585       7.207       6.896       6.670       6.418       6.119       5.791       5.519    
        5.124       4.627       4.234       3.954       3.543       3.541       3.762       3.882       3.970       4.058    
        4.096       4.131       4.173       4.210       4.190       4.104       3.905       3.600       3.271       2.939    
        2.619       2.313       1.980       1.726       1.343      0.9400      0.6752      0.4428      0.2301       0.000    
  24    10.00       9.906       9.788       9.672       9.557       9.429       9.306       9.209       9.092       8.812    
        8.380       7.938       7.564       7.233       6.936       6.640       6.332       6.061       5.801       5.481    
        5.010       4.517       4.051       3.204       2.301       2.824       3.328       3.621       3.786       3.922    
        3.996       4.045       4.094       4.111       4.089       3.976       3.755       3.508       3.149       2.797    
        2.548       2.253       1.938       1.614       1.203      0.8719      0.6490      0.4145      0.1830       0.000    
  25    10.00       9.898       9.760       9.619       9.484       9.369       9.274       9.177       9.031       8.742    
        8.288       7.877       7.590       7.281       6.936       6.629       6.341       6.104       5.862       5.450    
        4.910       4.426       3.681       2.307     -0.5593       2.202       2.997       3.462       3.707       3.849    
        3.935       3.993       4.034       4.039       4.003       3.875       3.640       3.350       3.058       2.764    
        2.480       2.162       1.803       1.460       1.069      0.7997      0.6453      0.4023      0.1492       0.000    
  26    10.00       9.872       9.696       9.536       9.428       9.334       9.240       9.121       8.950       8.593    
        8.171       7.884       7.608       7.300       6.977       6.682       6.410       6.173       5.869       5.430    
        4.956       4.421       3.768       3.024       2.340       2.697       3.170       3.497       3.696       3.828    
        3.909       3.969       3.994       3.987       3.930       3.772       3.507       3.273       3.040       2.723    
        2.430       2.070       1.659       1.289      0.9710      0.7814      0.6094      0.3578      0.1523       0.000    
  27    10.00       9.844       9.656       9.507       9.416       9.293       9.170       9.020       8.791       8.453    
        8.154       7.900       7.620       7.319       7.002       6.768       6.579       6.259       5.875       5.427    
        5.025       4.636       4.108       3.616       3.227       3.283       3.463       3.623       3.749       3.843    
        3.927       3.977       3.984       3.956       3.874       3.690       3.478       3.273       3.001       2.704    
        2.401       1.966       1.495       1.148      0.9259      0.7677      0.5787      0.3777      0.1822       0.000    
  28    10.00       9.824       9.686       9.519       9.364       9.214       9.078       8.901       8.672       8.410    
        8.165       7.937       7.659       7.324       7.042       6.852       6.641       6.289       5.844       5.449    
        5.162       4.870       4.454       4.068       3.819       3.735       3.726       3.775       3.856       3.933    
        3.987       3.999       3.990       3.940       3.830       3.662       3.491       3.247       2.963       2.663    
        2.292       1.882       1.414       1.070      0.9153      0.7641      0.5961      0.3942      0.1829       0.000    
  29    10.00       9.830       9.658       9.481       9.296       9.152       8.997       8.801       8.608       8.400    
        8.181       7.956       7.686       7.402       7.159       6.934       6.653       6.264       5.858       5.549    
        5.304       5.046       4.703       4.358       4.154       4.042       3.971       3.969       4.008       4.034    
        4.037       4.031       4.003       3.931       3.802       3.655       3.494       3.266       2.951       2.570    
        2.230       1.793       1.325       1.055      0.9181      0.7692      0.5914      0.3849      0.1915       0.000    
  30    10.00       9.805       9.632       9.420       9.232       9.100       8.935       8.762       8.613       8.426    
        8.203       7.959       7.714       7.487       7.271       7.017       6.660       6.297       5.971       5.675    
        5.463       5.207       4.893       4.593       4.347       4.249       4.184       4.160       4.136       4.114    
        4.089       4.064       4.015       3.919       3.799       3.681       3.518       3.224       2.833       2.441    
        2.093       1.690       1.334       1.084      0.9390      0.7709      0.5808      0.4033      0.1979       0.000    
  31    10.00       9.780       9.580       9.378       9.208       9.070       8.914       8.761       8.613       8.432    
        8.212       7.968       7.755       7.568       7.365       7.080       6.727       6.410       6.151       5.888    
        5.660       5.369       5.060       4.807       4.557       4.398       4.334       4.271       4.225       4.178    
        4.144       4.095       4.024       3.928       3.810       3.675       3.418       3.087       2.759       2.375    
        2.045       1.642       1.294       1.112      0.9563      0.7979      0.6001      0.4036      0.1914       0.000    
  32    10.00       9.763       9.549       9.375       9.232       9.095       8.932       8.758       8.580       8.409    
        8.193       7.981       7.793       7.587       7.400       7.158       6.883       6.643       6.375       6.102    
        5.872       5.600       5.287       5.014       4.755       4.528       4.443       4.362       4.297       4.231    
        4.181       4.132       4.036       3.914       3.800       3.614       3.293       2.979       2.688       2.336    
        1.950       1.574       1.315       1.175       1.005      0.8046      0.5954      0.3833      0.1913       0.000    
  33    10.00       9.756       9.573       9.434       9.291       9.132       8.936       8.744       8.553       8.359    
        8.179       8.001       7.816       7.620       7.411       7.224       7.022       6.818       6.598       6.330    
        6.062       5.808       5.543       5.224       4.905       4.648       4.519       4.439       4.360       4.275    
        4.215       4.144       4.041       3.920       3.754       3.495       3.164       2.896       2.613       2.201    
        1.848       1.599       1.393       1.225       1.031      0.8201      0.5639      0.3372      0.1520       0.000    
  34    10.00       9.778       9.628       9.498       9.340       9.145       8.940       8.715       8.506       8.344    
        8.182       8.020       7.853       7.651       7.467       7.286       7.111       6.948       6.738       6.466    
        6.213       5.981       5.719       5.388       5.038       4.751       4.585       4.491       4.400       4.306    
        4.224       4.149       4.044       3.894       3.690       3.372       3.047       2.801       2.463       2.097    
        1.877       1.712       1.513       1.296       1.041      0.7441      0.4559      0.2701      0.1120       0.000    
  35    10.00       9.815       9.680       9.548       9.379       9.161       8.927       8.678       8.479       8.340    
        8.232       8.070       7.884       7.670       7.474       7.346       7.218       7.050       6.834       6.574    
        6.333       6.103       5.862       5.492       5.097       4.824       4.642       4.532       4.427       4.320    
        4.237       4.146       4.023       3.829       3.515       3.181       2.962       2.703       2.355       2.132    
        1.976       1.788       1.588       1.377       1.054      0.6332      0.3504      0.2305      0.1170       0.000    
  36    10.00       9.837       9.720       9.594       9.415       9.157       8.872       8.638       8.495       8.387    
        8.241       8.058       7.888       7.699       7.527       7.399       7.277       7.130       6.959       6.719    
        6.469       6.226       5.930       5.535       5.145       4.869       4.695       4.567       4.438       4.326    
        4.235       4.118       3.925       3.638       3.351       3.117       2.908       2.636       2.355       2.205    
        2.046       1.877       1.675       1.403      0.9622      0.5339      0.3295      0.2110      0.1084       0.000    
  37    10.00       9.855       9.765       9.629       9.392       9.110       8.859       8.676       8.557       8.428    
        8.240       8.045       7.899       7.735       7.576       7.454       7.343       7.206       7.026       6.820    
        6.614       6.350       5.983       5.611       5.243       4.931       4.724       4.565       4.449       4.327    
        4.208       4.040       3.755       3.490       3.283       3.080       2.862       2.646       2.442       2.274    
        2.121       1.931       1.701       1.343      0.8836      0.5159      0.3093      0.1966      9.8614E-02   0.000    
  38    10.00       9.876       9.768       9.621       9.375       9.085       8.873       8.738       8.615       8.464    
        8.265       8.060       7.916       7.767       7.609       7.487       7.392       7.273       7.098       6.919    
        6.730       6.432       6.018       5.618       5.261       4.958       4.735       4.559       4.443       4.330    
        4.163       3.890       3.632       3.461       3.254       3.050       2.891       2.706       2.518       2.356    
        2.175       1.916       1.624       1.236      0.7785      0.4958      0.3489      0.2174      9.7563E-02   0.000    
  39    10.00       9.876       9.753       9.599       9.363       9.100       8.909       8.789       8.640       8.475    
        8.314       8.106       7.942       7.801       7.649       7.520       7.413       7.299       7.158       6.996    
        6.782       6.468       6.046       5.600       5.234       4.955       4.704       4.525       4.428       4.324    
        4.077       3.785       3.616       3.420       3.225       3.077       2.943       2.773       2.591       2.438    
        2.177       1.809       1.465       1.043      0.6964      0.5379      0.4005      0.2608      0.1342       0.000    
  40    10.00       9.866       9.759       9.602       9.386       9.166       8.980       8.823       8.647       8.495    
        8.374       8.174       7.968       7.825       7.684       7.541       7.423       7.332       7.210       7.023    
        6.782       6.425       5.998       5.581       5.204       4.915       4.639       4.496       4.410       4.271    
        4.048       3.819       3.590       3.384       3.244       3.114       2.985       2.827       2.657       2.457    
        2.104       1.702       1.328      0.9865      0.7479      0.5845      0.4476      0.3160      0.1552       0.000    
  41    10.00       9.885       9.800       9.648       9.425       9.197       9.021       8.881       8.709       8.527    
        8.386       8.206       8.016       7.881       7.719       7.546       7.444       7.348       7.196       6.996    
        6.749       6.404       5.979       5.570       5.195       4.813       4.554       4.473       4.383       4.277    
        4.096       3.821       3.589       3.422       3.281       3.165       3.023       2.870       2.695       2.383    
        1.969       1.576       1.250      0.9974      0.7908      0.6390      0.4925      0.3481      0.1833       0.000    
  42    10.00       9.914       9.820       9.675       9.485       9.269       9.070       8.926       8.772       8.575    
        8.395       8.223       8.064       7.935       7.765       7.581       7.459       7.331       7.166       6.942    
        6.663       6.289       5.920       5.517       5.030       4.686       4.544       4.480       4.402       4.286    
        4.074       3.834       3.614       3.445       3.330       3.205       3.078       2.913       2.635       2.222    
        1.859       1.565       1.280      0.9942      0.8020      0.6730      0.5324      0.3629      0.2014       0.000    
  43    10.00       9.933       9.833       9.685       9.498       9.320       9.144       8.983       8.797       8.596    
        8.430       8.257       8.101       7.981       7.824       7.621       7.461       7.316       7.091       6.806    
        6.532       6.173       5.829       5.373       4.912       4.681       4.567       4.493       4.417       4.296    
        4.095       3.874       3.662       3.494       3.383       3.258       3.094       2.859       2.453       2.086    
        1.858       1.596       1.297      0.9992      0.7954      0.6758      0.5673      0.3930      0.1842       0.000    
  44    10.00       9.926       9.841       9.689       9.520       9.392       9.217       9.002       8.791       8.625    
        8.460       8.290       8.152       8.028       7.848       7.634       7.452       7.279       7.014       6.724    
        6.397       6.036       5.673       5.214       4.866       4.692       4.596       4.530       4.447       4.295    
        4.087       3.909       3.722       3.566       3.452       3.285       3.067       2.730       2.314       2.069    
        1.860       1.587       1.288       1.016      0.8070      0.6788      0.5683      0.3854      0.1699       0.000    
  45    10.00       9.911       9.810       9.688       9.566       9.404       9.223       9.021       8.811       8.646    
        8.477       8.324       8.203       8.064       7.870       7.643       7.438       7.241       6.954       6.611    
        6.233       5.849       5.456       5.116       4.874       4.726       4.631       4.562       4.460       4.334    
        4.154       3.952       3.784       3.624       3.466       3.289       3.048       2.687       2.326       2.039    
        1.799       1.542       1.261       1.016      0.8338      0.7270      0.5616      0.3344      0.1525       0.000    
  46    10.00       9.893       9.789       9.692       9.556       9.373       9.199       9.034       8.830       8.653    
        8.505       8.362       8.241       8.078       7.872       7.670       7.452       7.195       6.884       6.511    
        6.064       5.680       5.364       5.104       4.919       4.789       4.673       4.581       4.500       4.360    
        4.170       3.995       3.832       3.650       3.492       3.321       3.050       2.634       2.252       1.996    
        1.770       1.521       1.256       1.041      0.8987      0.7613      0.5103      0.2508      0.1091       0.000    
  47    10.00       9.887       9.782       9.649       9.491       9.342       9.192       9.015       8.829       8.672    
        8.537       8.409       8.242       8.066       7.881       7.686       7.450       7.149       6.856       6.404    
        5.916       5.614       5.341       5.137       4.965       4.838       4.723       4.611       4.516       4.372    
        4.174       4.001       3.838       3.667       3.528       3.322       2.946       2.571       2.251       1.977    
        1.778       1.542       1.306       1.098      0.9217      0.6998      0.4209      0.2200      9.1600E-02   0.000    
  48    10.00       9.875       9.749       9.608       9.465       9.332       9.181       9.019       8.848       8.693    
        8.556       8.408       8.227       8.045       7.865       7.672       7.448       7.164       6.799       6.349    
        5.925       5.615       5.349       5.161       5.022       4.867       4.751       4.657       4.540       4.346    
        4.152       3.984       3.833       3.705       3.524       3.252       2.893       2.554       2.250       2.008    
        1.794       1.569       1.356       1.120      0.8564      0.5698      0.3603      0.2137      9.6561E-02   0.000    
  49    10.00       9.864       9.727       9.589       9.472       9.335       9.175       9.015       8.877       8.717    
        8.553       8.369       8.191       8.039       7.833       7.647       7.460       7.143       6.782       6.423    
        5.976       5.630       5.365       5.200       5.038       4.871       4.781       4.693       4.508       4.273    
        4.106       3.972       3.862       3.697       3.486       3.243       2.883       2.543       2.305       2.047    
        1.795       1.588       1.360       1.083      0.7594      0.5087      0.3607      0.2328      0.1194       0.000    
  50    10.00       9.869       9.732       9.592       9.464       9.330       9.187       9.030       8.885       8.743    
        8.542       8.349       8.186       7.982       7.774       7.631       7.453       7.208       6.850       6.495    
        6.040       5.604       5.374       5.207       5.037       4.902       4.794       4.677       4.458       4.235    
        4.097       3.985       3.857       3.686       3.491       3.258       2.893       2.545       2.313       2.081    
        1.841       1.581       1.325       1.027      0.7083      0.5207      0.3882      0.2631      0.1587       0.000    

 HEAD WILL BE SAVED ON UNIT   51 AT END OF TIME STEP  84, STRESS PERIOD    2

 DRAWDOWN WILL BE SAVED ON UNIT   52 AT END OF TIME STEP  84, STRESS PERIOD    2
1
  VOLUMETRIC BUDGET FOR ENTIRE MODEL AT END OF TIME STEP 84 IN STRESS PERIOD   2
  ------------------------------------------------------------------------------

     CUMULATIVE VOLUMES      L**3       RATES FOR THIS TIME STEP      L**3/T
     ------------------                 ------------------------

           IN:                                      IN:
           ---                                      ---
             STORAGE =       40450.6094               STORAGE =         439.3187
       CONSTANT HEAD =       33001.2773         CONSTANT HEAD =         422.4825
               WELLS =           0.0000                 WELLS =           0.0000

            TOTAL IN =       73451.8906              TOTAL IN =         861.8011

          OUT:                                     OUT:
          ----                                     ----
             STORAGE =       1.1143E-02               STORAGE =           0.0000
       CONSTANT HEAD =       31451.8652         CONSTANT HEAD =         361.8011
               WELLS =       42000.0000                 WELLS =         500.0000

           TOTAL OUT =       73451.8750             TOTAL OUT =         861.8011

            IN - OUT =       1.5625E-02              IN - OUT =           0.0000

 PERCENT DISCREPANCY =           0.00     PERCENT DISCREPANCY =           0.00






          TIME SUMMARY AT END OF TIME STEP  84 IN STRESS PERIOD    2
                    SECONDS     MINUTES      HOURS       DAYS        YEARS
                    -----------------------------------------------------------
   TIME STEP LENGTH  86400.      1440.0      24.000      1.0000     2.73785E-03
 STRESS PERIOD TIME 7.25760E+06 1.20960E+05  2016.0      84.000     0.22998    
         TOTAL TIME 7.34400E+06 1.22400E+05  2040.0      85.000     0.23272    
1
 
 SOLVING FOR HEAD 

 OUTPUT CONTROL FOR STRESS PERIOD    2   TIME STEP  85
    SAVE HEAD FOR ALL LAYERS
    SAVE DRAWDOWN FOR ALL LAYERS
    SAVE BUDGET
    PRINT HEAD FOR ALL LAYERS
    PRINT BUDGET
 UBDSV1 SAVING "         STORAGE" ON UNIT  53 AT TIME STEP 85, STRESS PERIOD   2
 UBDSV2 SAVING "   CONSTANT HEAD" ON UNIT  53 AT TIME STEP 85, STRESS PERIOD   2
 UBDSV1 SAVING "FLOW RIGHT FACE " ON UNIT  53 AT TIME STEP 85, STRESS PERIOD   2
 UBDSV1 SAVING "FLOW FRONT FACE " ON UNIT  53 AT TIME STEP 85, STRESS PERIOD   2
1
              HEAD IN LAYER   1 AT END OF TIME STEP  85 IN STRESS PERIOD    2
  ---------------------------------------------------------------------------

            1           2           3           4           5           6           7           8           9          10
           11          12          13          14          15          16          17          18          19          20
           21          22          23          24          25          26          27          28          29          30
           31          32          33          34          35          36          37          38          39          40
           41          42          43          44          45          46          47          48          49          50
 ........................................................................................................................
   1    10.00       9.949       9.899       9.840       9.793       9.754       9.701       9.629       9.550       9.477    
        9.317       9.116       8.968       8.803       8.627       8.450       8.286       8.097       7.845       7.595    
        7.424       7.229       6.973       6.713       6.482       6.281       5.995       5.734       5.551       5.360    
        5.197       5.093       4.983       4.858       4.739       4.591       4.432       4.218       3.972       3.702    
        3.353       2.997       2.528       2.013       1.625       1.345       1.135      0.8955      0.5258       0.000    
   2    10.00       9.944       9.890       9.840       9.801       9.763       9.704       9.630       9.557       9.459    
        9.302       9.122       8.956       8.805       8.643       8.460       8.265       8.070       7.835       7.583    
        7.397       7.237       6.963       6.682       6.476       6.248       5.971       5.724       5.512       5.332    
        5.195       5.100       5.007       4.874       4.734       4.588       4.405       4.205       3.967       3.659    
        3.333       3.030       2.538       2.027       1.683       1.434       1.193      0.9249      0.5586       0.000    
   3    10.00       9.935       9.890       9.855       9.817       9.778       9.715       9.627       9.538       9.431    
        9.289       9.129       8.969       8.817       8.623       8.393       8.202       8.034       7.818       7.596    
        7.406       7.176       6.905       6.657       6.433       6.178       5.911       5.665       5.449       5.316    
        5.206       5.116       5.023       4.877       4.729       4.572       4.392       4.167       3.900       3.665    
        3.378       2.965       2.485       2.119       1.827       1.538       1.242      0.9375      0.5296       0.000    
   4    10.00       9.935       9.895       9.864       9.838       9.796       9.723       9.621       9.516       9.410    
        9.274       9.130       8.969       8.777       8.539       8.325       8.188       7.999       7.790       7.616    
        7.354       7.062       6.823       6.602       6.385       6.079       5.783       5.587       5.442       5.330    
        5.232       5.137       5.035       4.865       4.683       4.540       4.348       4.116       3.890       3.685    
        3.358       2.904       2.542       2.235       1.922       1.595       1.238      0.8822      0.4524       0.000    
   5    10.00       9.940       9.903       9.872       9.849       9.805       9.729       9.612       9.495       9.388    
        9.272       9.124       8.916       8.691       8.489       8.320       8.149       7.972       7.776       7.530    
        7.224       6.982       6.785       6.561       6.281       5.962       5.721       5.582       5.464       5.349    
        5.236       5.121       5.003       4.837       4.652       4.480       4.308       4.127       3.923       3.653    
        3.282       2.937       2.629       2.320       1.979       1.598       1.150      0.7422      0.3845       0.000    
   6    10.00       9.950       9.914       9.884       9.851       9.803       9.721       9.595       9.493       9.378    
        9.247       9.063       8.835       8.647       8.460       8.267       8.091       7.933       7.713       7.432    
        7.160       6.930       6.727       6.449       6.145       5.905       5.711       5.583       5.449       5.330    
        5.230       5.104       4.958       4.786       4.605       4.458       4.311       4.148       3.933       3.642    
        3.320       2.988       2.674       2.362       1.993       1.532       1.050      0.6972      0.3591       0.000    
   7    10.00       9.957       9.925       9.893       9.858       9.800       9.690       9.568       9.462       9.318    
        9.184       8.987       8.779       8.586       8.392       8.195       8.024       7.877       7.623       7.324    
        7.077       6.841       6.615       6.346       6.089       5.871       5.702       5.545       5.400       5.310    
        5.208       5.067       4.912       4.743       4.588       4.458       4.321       4.155       3.936       3.674    
        3.355       3.014       2.689       2.345       1.981       1.498       1.004      0.6635      0.3141       0.000    
   8    10.00       9.964       9.936       9.901       9.860       9.766       9.631       9.515       9.381       9.245    
        9.095       8.892       8.715       8.517       8.300       8.105       7.957       7.781       7.538       7.248    
        6.960       6.745       6.556       6.279       6.010       5.816       5.624       5.453       5.357       5.268    
        5.145       5.004       4.875       4.728       4.571       4.438       4.333       4.209       3.998       3.698    
        3.350       3.047       2.745       2.346       1.941       1.401      0.9291      0.6494      0.3006       0.000    
   9    10.00       9.971       9.940       9.899       9.830       9.706       9.562       9.425       9.307       9.166    
        8.989       8.809       8.631       8.440       8.215       8.033       7.893       7.684       7.444       7.145    
        6.897       6.682       6.411       6.125       5.898       5.725       5.533       5.393       5.300       5.198    
        5.086       4.960       4.838       4.710       4.576       4.453       4.353       4.242       4.024       3.700    
        3.381       3.115       2.797       2.414       1.815       1.206      0.8847      0.5488      0.2093       0.000    
  10    10.00       9.971       9.938       9.882       9.775       9.627       9.465       9.359       9.247       9.079    
        8.924       8.745       8.568       8.360       8.151       7.987       7.797       7.580       7.325       7.083    
        6.839       6.506       6.226       6.001       5.810       5.653       5.476       5.336       5.242       5.161    
        5.044       4.909       4.801       4.684       4.566       4.484       4.385       4.256       4.007       3.687    
        3.440       3.207       2.844       2.266       1.572       1.131      0.8021      0.4899      0.2445       0.000    
  11    10.00       9.971       9.927       9.839       9.718       9.552       9.409       9.320       9.185       9.042    
        8.893       8.704       8.491       8.267       8.091       7.913       7.734       7.500       7.253       7.014    
        6.661       6.340       6.119       5.918       5.733       5.558       5.389       5.281       5.206       5.124    
        4.989       4.864       4.777       4.674       4.581       4.490       4.377       4.239       4.004       3.750    
        3.492       3.188       2.792       2.155       1.506       1.062      0.7509      0.5699      0.3150       0.000    
  12    10.00       9.969       9.906       9.793       9.634       9.468       9.354       9.265       9.147       9.018    
        8.853       8.652       8.437       8.240       8.061       7.863       7.657       7.416       7.163       6.836    
        6.486       6.244       6.026       5.821       5.616       5.443       5.326       5.248       5.150       5.041    
        4.921       4.832       4.756       4.677       4.597       4.505       4.385       4.219       4.004       3.777    
        3.499       3.169       2.627       1.910       1.358       1.045      0.8330      0.6045      0.3448       0.000    
  13    10.00       9.958       9.860       9.704       9.538       9.395       9.303       9.224       9.124       8.999    
        8.824       8.614       8.417       8.259       8.050       7.808       7.566       7.305       7.022       6.701    
        6.396       6.133       5.896       5.682       5.485       5.361       5.290       5.174       5.047       4.949    
        4.876       4.808       4.740       4.676       4.599       4.519       4.413       4.223       4.006       3.737    
        3.417       2.999       2.370       1.789       1.388       1.123      0.8753      0.6058      0.2995       0.000    
  14    10.00       9.924       9.782       9.610       9.456       9.343       9.282       9.209       9.112       8.973    
        8.781       8.601       8.439       8.273       8.036       7.749       7.488       7.192       6.879       6.545    
        6.249       5.985       5.752       5.542       5.390       5.305       5.216       5.074       4.968       4.896    
        4.845       4.781       4.725       4.665       4.596       4.534       4.407       4.213       3.985       3.648    
        3.273       2.779       2.296       1.874       1.476       1.165      0.8905      0.6062      0.2702       0.000    
  15    10.00       9.857       9.700       9.545       9.422       9.335       9.266       9.197       9.101       8.971    
        8.801       8.625       8.464       8.229       7.948       7.671       7.383       7.077       6.703       6.349    
        6.074       5.820       5.602       5.443       5.330       5.241       5.130       4.999       4.912       4.863    
        4.802       4.752       4.710       4.652       4.589       4.521       4.386       4.204       3.914       3.552    
        3.164       2.723       2.333       1.899       1.565       1.234      0.9016      0.6006      0.2466       0.000    
  16    10.00       9.833       9.662       9.521       9.414       9.335       9.264       9.200       9.106       8.972    
        8.810       8.641       8.441       8.139       7.832       7.601       7.316       6.906       6.481       6.154    
        5.873       5.663       5.485       5.351       5.226       5.146       5.024       4.918       4.854       4.797    
        4.755       4.725       4.682       4.628       4.571       4.492       4.368       4.146       3.831       3.506    
        3.176       2.755       2.318       1.937       1.622       1.275      0.8994      0.5386      0.2029       0.000    
  17    10.00       9.811       9.639       9.525       9.430       9.349       9.280       9.208       9.105       8.979    
        8.828       8.614       8.338       8.012       7.754       7.536       7.184       6.722       6.292       5.978    
        5.755       5.521       5.324       5.180       5.078       4.976       4.870       4.806       4.755       4.728    
        4.716       4.688       4.644       4.592       4.532       4.446       4.300       4.106       3.855       3.517    
        3.144       2.700       2.298       1.962       1.641       1.284      0.9187      0.5614      0.2375       0.000    
  18    10.00       9.800       9.638       9.539       9.453       9.376       9.306       9.219       9.118       8.982    
        8.800       8.546       8.239       7.963       7.710       7.388       6.980       6.558       6.180       5.872    
        5.597       5.297       5.128       5.009       4.920       4.803       4.736       4.681       4.649       4.661    
        4.660       4.636       4.592       4.534       4.473       4.383       4.245       4.090       3.874       3.565    
        3.082       2.611       2.284       1.964       1.691       1.318      0.9146      0.5512      0.2377       0.000    
  19    10.00       9.808       9.673       9.572       9.480       9.402       9.320       9.239       9.145       8.988    
        8.773       8.501       8.197       7.890       7.554       7.205       6.829       6.422       6.042       5.715    
        5.396       5.137       5.002       4.911       4.784       4.681       4.624       4.574       4.567       4.573    
        4.584       4.573       4.520       4.469       4.421       4.353       4.227       4.059       3.842       3.479    
        2.995       2.596       2.271       1.957       1.651       1.265      0.8796      0.5484      0.2587       0.000    
  20    10.00       9.819       9.703       9.614       9.526       9.433       9.336       9.248       9.154       8.994    
        8.760       8.477       8.123       7.723       7.338       7.054       6.676       6.241       5.908       5.585    
        5.301       5.087       4.924       4.785       4.622       4.550       4.514       4.489       4.495       4.497    
        4.505       4.485       4.445       4.420       4.383       4.317       4.171       4.003       3.756       3.350    
        2.934       2.617       2.242       1.884       1.550       1.169      0.8825      0.5450      0.2419       0.000    
  21    10.00       9.845       9.741       9.651       9.554       9.465       9.359       9.263       9.161       8.979    
        8.726       8.378       7.936       7.470       7.114       6.856       6.502       6.186       5.874       5.525    
        5.255       5.018       4.815       4.549       4.414       4.378       4.321       4.362       4.398       4.395    
        4.392       4.367       4.368       4.358       4.332       4.244       4.103       3.960       3.602       3.180    
        2.870       2.528       2.144       1.810       1.456       1.122      0.7992      0.4801      0.2414       0.000    
  22    10.00       9.878       9.769       9.671       9.577       9.493       9.372       9.247       9.128       8.940    
        8.629       8.192       7.694       7.258       6.954       6.687       6.418       6.190       5.846       5.504    
        5.220       4.881       4.514       4.238       4.137       4.037       4.050       4.157       4.197       4.217    
        4.235       4.236       4.267       4.291       4.267       4.179       4.043       3.777       3.369       3.100    
        2.767       2.398       2.052       1.731       1.429       1.033      0.6936      0.4601      0.2589       0.000    
  23    10.00       9.880       9.775       9.686       9.587       9.476       9.338       9.225       9.120       8.882    
        8.501       8.032       7.579       7.199       6.888       6.661       6.409       6.110       5.782       5.509    
        5.114       4.616       4.224       3.943       3.532       3.530       3.751       3.871       3.959       4.046    
        4.085       4.120       4.162       4.199       4.180       4.095       3.896       3.593       3.265       2.934    
        2.614       2.309       1.976       1.723       1.341      0.9388      0.6744      0.4423      0.2298       0.000    
  24    10.00       9.906       9.787       9.671       9.556       9.428       9.304       9.207       9.089       8.809    
        8.375       7.932       7.557       7.226       6.928       6.631       6.323       6.052       5.792       5.472    
        5.000       4.506       4.040       3.193       2.290       2.813       3.316       3.610       3.774       3.910    
        3.985       4.034       4.083       4.100       4.079       3.966       3.746       3.500       3.142       2.792    
        2.543       2.249       1.935       1.612       1.201      0.8708      0.6482      0.4140      0.1828       0.000    
  25    10.00       9.898       9.760       9.617       9.483       9.367       9.271       9.174       9.028       8.738    
        8.283       7.871       7.583       7.273       6.928       6.621       6.332       6.095       5.853       5.440    
        4.900       4.415       3.670       2.295     -0.5714       2.190       2.985       3.451       3.695       3.838    
        3.924       3.982       4.023       4.028       3.993       3.865       3.631       3.342       3.051       2.758    
        2.475       2.158       1.800       1.458       1.068      0.7987      0.6445      0.4018      0.1490       0.000    
  26    10.00       9.872       9.695       9.534       9.426       9.332       9.238       9.119       8.947       8.589    
        8.166       7.878       7.601       7.292       6.969       6.674       6.401       6.164       5.860       5.420    
        4.946       4.410       3.757       3.012       2.328       2.686       3.158       3.485       3.685       3.816    
        3.897       3.957       3.983       3.976       3.919       3.762       3.498       3.265       3.033       2.718    
        2.426       2.066       1.656       1.287      0.9696      0.7804      0.6086      0.3573      0.1521       0.000    
  27    10.00       9.844       9.655       9.505       9.414       9.291       9.168       9.017       8.787       8.448    
        8.149       7.894       7.613       7.312       6.995       6.760       6.570       6.250       5.865       5.417    
        5.015       4.625       4.098       3.605       3.216       3.272       3.452       3.611       3.738       3.831    
        3.916       3.965       3.973       3.945       3.863       3.681       3.470       3.266       2.994       2.698    
        2.396       1.963       1.492       1.146      0.9246      0.7667      0.5780      0.3772      0.1820       0.000    
  28    10.00       9.823       9.685       9.517       9.362       9.212       9.075       8.897       8.668       8.406    
        8.160       7.932       7.653       7.317       7.034       6.844       6.632       6.280       5.835       5.440    
        5.152       4.860       4.443       4.057       3.808       3.724       3.715       3.764       3.844       3.922    
        3.976       3.988       3.979       3.930       3.819       3.653       3.482       3.240       2.957       2.658    
        2.288       1.878       1.412       1.069      0.9141      0.7630      0.5953      0.3937      0.1826       0.000    
  29    10.00       9.829       9.657       9.480       9.294       9.149       8.994       8.797       8.604       8.395    
        8.176       7.950       7.680       7.396       7.152       6.926       6.645       6.255       5.848       5.540    
        5.294       5.036       4.692       4.347       4.143       4.031       3.960       3.958       3.997       4.023    
        4.026       4.021       3.992       3.920       3.792       3.646       3.485       3.258       2.944       2.564    
        2.225       1.790       1.323       1.054      0.9168      0.7682      0.5906      0.3844      0.1912       0.000    
  30    10.00       9.804       9.631       9.419       9.230       9.097       8.932       8.759       8.609       8.422    
        8.198       7.954       7.707       7.480       7.263       7.009       6.651       6.289       5.962       5.666    
        5.453       5.197       4.883       4.583       4.337       4.238       4.173       4.149       4.125       4.104    
        4.078       4.054       4.005       3.909       3.789       3.672       3.509       3.217       2.827       2.436    
        2.089       1.687       1.332       1.082      0.9377      0.7698      0.5800      0.4027      0.1977       0.000    
  31    10.00       9.779       9.579       9.376       9.206       9.067       8.911       8.757       8.609       8.428    
        8.207       7.962       7.749       7.562       7.358       7.073       6.719       6.401       6.142       5.878    
        5.650       5.360       5.050       4.797       4.546       4.387       4.323       4.261       4.215       4.168    
        4.134       4.084       4.014       3.919       3.800       3.666       3.410       3.081       2.754       2.370    
        2.041       1.640       1.292       1.110      0.9550      0.7968      0.5993      0.4031      0.1911       0.000    
  32    10.00       9.762       9.547       9.373       9.230       9.092       8.929       8.755       8.576       8.405    
        8.188       7.976       7.787       7.581       7.393       7.151       6.875       6.635       6.367       6.093    
        5.863       5.591       5.277       5.004       4.744       4.518       4.433       4.351       4.287       4.220    
        4.171       4.122       4.027       3.904       3.791       3.605       3.286       2.973       2.683       2.332    
        1.947       1.571       1.314       1.173       1.003      0.8035      0.5946      0.3828      0.1911       0.000    
  33    10.00       9.755       9.572       9.432       9.289       9.129       8.933       8.740       8.549       8.354    
        8.174       7.996       7.810       7.614       7.405       7.217       7.015       6.810       6.590       6.322    
        6.054       5.799       5.534       5.214       4.895       4.638       4.509       4.429       4.350       4.266    
        4.205       4.135       4.032       3.911       3.745       3.487       3.157       2.891       2.608       2.197    
        1.845       1.597       1.391       1.223       1.029      0.8191      0.5632      0.3368      0.1518       0.000    
  34    10.00       9.777       9.627       9.496       9.338       9.143       8.937       8.712       8.502       8.339    
        8.177       8.015       7.847       7.645       7.461       7.279       7.104       6.940       6.730       6.458    
        6.205       5.972       5.710       5.379       5.028       4.742       4.575       4.481       4.390       4.297    
        4.215       4.140       4.035       3.885       3.683       3.365       3.041       2.796       2.459       2.094    
        1.874       1.709       1.510       1.295       1.040      0.7431      0.4553      0.2698      0.1119       0.000    
  35    10.00       9.814       9.679       9.547       9.378       9.158       8.924       8.675       8.475       8.336    
        8.227       8.065       7.879       7.664       7.468       7.339       7.211       7.043       6.826       6.566    
        6.324       6.094       5.853       5.483       5.088       4.815       4.633       4.523       4.418       4.311    
        4.228       4.137       4.014       3.821       3.509       3.176       2.957       2.699       2.352       2.129    
        1.974       1.786       1.586       1.375       1.052      0.6324      0.3500      0.2302      0.1169       0.000    
  36    10.00       9.837       9.720       9.593       9.414       9.154       8.869       8.635       8.491       8.383    
        8.236       8.053       7.883       7.694       7.521       7.393       7.271       7.123       6.951       6.712    
        6.461       6.217       5.921       5.527       5.136       4.860       4.686       4.558       4.429       4.318    
        4.226       4.110       3.917       3.632       3.346       3.112       2.903       2.632       2.351       2.202    
        2.044       1.875       1.673       1.401      0.9610      0.5333      0.3291      0.2107      0.1083       0.000    
  37    10.00       9.854       9.764       9.628       9.390       9.107       8.856       8.673       8.554       8.424    
        8.236       8.040       7.894       7.730       7.570       7.448       7.337       7.200       7.019       6.813    
        6.607       6.342       5.975       5.603       5.234       4.923       4.716       4.556       4.441       4.319    
        4.200       4.033       3.748       3.485       3.278       3.075       2.858       2.643       2.439       2.271    
        2.118       1.928       1.699       1.342      0.8825      0.5153      0.3089      0.1964      9.8507E-02   0.000    
  38    10.00       9.876       9.768       9.620       9.374       9.082       8.870       8.734       8.611       8.460    
        8.261       8.055       7.911       7.761       7.603       7.481       7.386       7.267       7.091       6.912    
        6.723       6.424       6.011       5.610       5.253       4.951       4.727       4.551       4.436       4.323    
        4.156       3.884       3.627       3.456       3.249       3.046       2.887       2.702       2.515       2.353    
        2.173       1.914       1.622       1.234      0.7777      0.4953      0.3485      0.2172      9.7464E-02   0.000    
  39    10.00       9.875       9.753       9.598       9.361       9.098       8.906       8.786       8.637       8.471    
        8.310       8.102       7.937       7.796       7.643       7.514       7.407       7.293       7.152       6.989    
        6.775       6.461       6.039       5.593       5.227       4.948       4.697       4.518       4.422       4.317    
        4.072       3.780       3.611       3.415       3.221       3.073       2.939       2.770       2.588       2.435    
        2.174       1.807       1.463       1.042      0.6957      0.5373      0.4002      0.2606      0.1341       0.000    
  40    10.00       9.866       9.759       9.601       9.384       9.164       8.977       8.820       8.644       8.491    
        8.370       8.170       7.963       7.820       7.679       7.535       7.417       7.326       7.204       7.017    
        6.775       6.418       5.991       5.575       5.198       4.909       4.633       4.490       4.405       4.266    
        4.043       3.814       3.586       3.380       3.240       3.110       2.982       2.824       2.654       2.454    
        2.102       1.700       1.327      0.9855      0.7472      0.5839      0.4472      0.3157      0.1550       0.000    
  41    10.00       9.885       9.799       9.647       9.424       9.195       9.019       8.878       8.706       8.524    
        8.382       8.202       8.012       7.877       7.714       7.541       7.438       7.343       7.190       6.990    
        6.743       6.399       5.973       5.565       5.189       4.808       4.549       4.468       4.378       4.273    
        4.091       3.817       3.585       3.419       3.278       3.161       3.019       2.867       2.692       2.381    
        1.967       1.575       1.249      0.9965      0.7901      0.6385      0.4921      0.3477      0.1832       0.000    
  42    10.00       9.914       9.820       9.675       9.484       9.267       9.068       8.924       8.770       8.572    
        8.391       8.219       8.060       7.930       7.761       7.576       7.454       7.326       7.161       6.937    
        6.658       6.284       5.915       5.512       5.025       4.681       4.539       4.476       4.397       4.281    
        4.070       3.830       3.610       3.441       3.326       3.201       3.075       2.910       2.632       2.220    
        1.857       1.563       1.279      0.9933      0.8013      0.6724      0.5319      0.3626      0.2012       0.000    
  43    10.00       9.933       9.832       9.684       9.497       9.319       9.142       8.981       8.794       8.593    
        8.427       8.254       8.097       7.977       7.820       7.616       7.456       7.311       7.086       6.801    
        6.528       6.169       5.825       5.369       4.908       4.677       4.563       4.489       4.413       4.292    
        4.091       3.870       3.658       3.490       3.380       3.255       3.091       2.856       2.451       2.084    
        1.856       1.595       1.296      0.9984      0.7948      0.6753      0.5668      0.3927      0.1840       0.000    
  44    10.00       9.926       9.841       9.688       9.519       9.391       9.216       9.000       8.789       8.622    
        8.458       8.287       8.149       8.025       7.844       7.631       7.448       7.275       7.010       6.720    
        6.393       6.032       5.669       5.210       4.862       4.689       4.592       4.526       4.443       4.291    
        4.084       3.906       3.719       3.562       3.449       3.282       3.064       2.727       2.312       2.067    
        1.859       1.586       1.287       1.015      0.8064      0.6783      0.5679      0.3851      0.1697       0.000    
  45    10.00       9.911       9.810       9.688       9.565       9.403       9.222       9.019       8.809       8.643    
        8.475       8.322       8.200       8.061       7.867       7.639       7.434       7.237       6.950       6.608    
        6.230       5.846       5.453       5.113       4.870       4.722       4.627       4.559       4.456       4.331    
        4.151       3.948       3.781       3.621       3.463       3.286       3.046       2.685       2.324       2.037    
        1.798       1.541       1.260       1.016      0.8332      0.7265      0.5612      0.3342      0.1524       0.000    
  46    10.00       9.893       9.789       9.692       9.555       9.372       9.198       9.033       8.828       8.651    
        8.503       8.360       8.239       8.076       7.869       7.667       7.449       7.192       6.881       6.508    
        6.061       5.677       5.361       5.101       4.916       4.785       4.669       4.577       4.496       4.356    
        4.166       3.992       3.828       3.647       3.489       3.318       3.048       2.632       2.250       1.994    
        1.768       1.520       1.255       1.040      0.8981      0.7608      0.5100      0.2507      0.1090       0.000    
  47    10.00       9.887       9.782       9.649       9.491       9.341       9.191       9.013       8.828       8.670    
        8.535       8.407       8.240       8.063       7.879       7.683       7.447       7.146       6.853       6.401    
        5.913       5.611       5.338       5.134       4.961       4.834       4.720       4.608       4.512       4.369    
        4.171       3.998       3.835       3.664       3.525       3.319       2.944       2.570       2.249       1.975    
        1.777       1.542       1.305       1.097      0.9212      0.6994      0.4206      0.2198      9.1545E-02   0.000    
  48    10.00       9.874       9.749       9.608       9.464       9.331       9.180       9.018       8.846       8.692    
        8.554       8.406       8.225       8.043       7.863       7.670       7.445       7.162       6.797       6.346    
        5.923       5.612       5.346       5.158       5.019       4.864       4.748       4.654       4.536       4.343    
        4.149       3.981       3.830       3.703       3.521       3.250       2.892       2.553       2.249       2.007    
        1.793       1.568       1.355       1.119      0.8560      0.5695      0.3601      0.2136      9.6509E-02   0.000    
  49    10.00       9.864       9.727       9.588       9.471       9.334       9.174       9.014       8.876       8.716    
        8.552       8.367       8.189       8.037       7.831       7.644       7.457       7.141       6.779       6.420    
        5.973       5.627       5.362       5.197       5.035       4.868       4.778       4.690       4.505       4.270    
        4.103       3.969       3.859       3.694       3.484       3.241       2.881       2.542       2.303       2.046    
        1.794       1.587       1.360       1.082      0.7590      0.5084      0.3605      0.2327      0.1194       0.000    
  50    10.00       9.869       9.732       9.591       9.464       9.329       9.186       9.029       8.884       8.741    
        8.540       8.348       8.184       7.980       7.772       7.629       7.451       7.206       6.848       6.492    
        6.037       5.602       5.371       5.204       5.034       4.899       4.791       4.674       4.455       4.232    
        4.094       3.982       3.854       3.683       3.489       3.256       2.892       2.544       2.312       2.080    
        1.840       1.580       1.324       1.027      0.7079      0.5204      0.3880      0.2630      0.1586       0.000    

 HEAD WILL BE SAVED ON UNIT   51 AT END OF TIME STEP  85, STRESS PERIOD    2

 DRAWDOWN WILL BE SAVED ON UNIT   52 AT END OF TIME STEP  85, STRESS PERIOD    2
1
  VOLUMETRIC BUDGET FOR ENTIRE MODEL AT END OF TIME STEP 85 IN STRESS PERIOD   2
  ------------------------------------------------------------------------------

     CUMULATIVE VOLUMES      L**3       RATES FOR THIS TIME STEP      L**3/T
     ------------------                 ------------------------

           IN:                                      IN:
           ---                                      ---
             STORAGE =       40888.5273               STORAGE =         437.9185
       CONSTANT HEAD =       33424.7891         CONSTANT HEAD =         423.5111
               WELLS =           0.0000                 WELLS =           0.0000

            TOTAL IN =       74313.3125              TOTAL IN =         861.4296

          OUT:                                     OUT:
          ----                                     ----
             STORAGE =       1.1143E-02               STORAGE =           0.0000
       CONSTANT HEAD =       31813.2949         CONSTANT HEAD =         361.4295
               WELLS =       42500.0000                 WELLS =         500.0000

           TOTAL OUT =       74313.3047             TOTAL OUT =         861.4294

            IN - OUT =       7.8125E-03              IN - OUT =       1.2207E-04

 PERCENT DISCREPANCY =           0.00     PERCENT DISCREPANCY =           0.00






          TIME SUMMARY AT END OF TIME STEP  85 IN STRESS PERIOD    2
                    SECONDS     MINUTES      HOURS       DAYS        YEARS
                    -----------------------------------------------------------
   TIME STEP LENGTH  86400.      1440.0      24.000      1.0000     2.73785E-03
 STRESS PERIOD TIME 7.34400E+06 1.22400E+05  2040.0      85.000     0.23272    
         TOTAL TIME 7.43040E+06 1.23840E+05  2064.0      86.000     0.23546    
1
 
 SOLVING FOR HEAD 

 OUTPUT CONTROL FOR STRESS PERIOD    2   TIME STEP  86
    SAVE HEAD FOR ALL LAYERS
    SAVE DRAWDOWN FOR ALL LAYERS
    SAVE BUDGET
    PRINT HEAD FOR ALL LAYERS
    PRINT BUDGET
 UBDSV1 SAVING "         STORAGE" ON UNIT  53 AT TIME STEP 86, STRESS PERIOD   2
 UBDSV2 SAVING "   CONSTANT HEAD" ON UNIT  53 AT TIME STEP 86, STRESS PERIOD   2
 UBDSV1 SAVING "FLOW RIGHT FACE " ON UNIT  53 AT TIME STEP 86, STRESS PERIOD   2
 UBDSV1 SAVING "FLOW FRONT FACE " ON UNIT  53 AT TIME STEP 86, STRESS PERIOD   2
1
              HEAD IN LAYER   1 AT END OF TIME STEP  86 IN STRESS PERIOD    2
  ---------------------------------------------------------------------------

            1           2           3           4           5           6           7           8           9          10
           11          12          13          14          15          16          17          18          19          20
           21          22          23          24          25          26          27          28          29          30
           31          32          33          34          35          36          37          38          39          40
           41          42          43          44          45          46          47          48          49          50
 ........................................................................................................................
   1    10.00       9.949       9.899       9.840       9.793       9.753       9.701       9.628       9.549       9.476    
        9.315       9.114       8.966       8.801       8.625       8.447       8.283       8.094       7.842       7.591    
        7.420       7.225       6.969       6.709       6.477       6.275       5.989       5.729       5.545       5.354    
        5.191       5.087       4.977       4.853       4.733       4.586       4.427       4.213       3.968       3.698    
        3.350       2.994       2.525       2.011       1.623       1.343       1.134      0.8946      0.5253       0.000    
   2    10.00       9.944       9.890       9.840       9.800       9.762       9.704       9.629       9.557       9.458    
        9.301       9.121       8.954       8.803       8.641       8.457       8.262       8.067       7.832       7.579    
        7.393       7.232       6.958       6.677       6.471       6.243       5.966       5.718       5.507       5.326    
        5.189       5.094       5.001       4.869       4.729       4.583       4.400       4.200       3.962       3.655    
        3.329       3.027       2.535       2.025       1.681       1.432       1.192      0.9241      0.5581       0.000    
   3    10.00       9.935       9.890       9.855       9.817       9.777       9.714       9.626       9.537       9.430    
        9.287       9.128       8.967       8.814       8.621       8.390       8.199       8.031       7.814       7.592    
        7.401       7.172       6.900       6.652       6.428       6.172       5.905       5.660       5.443       5.310    
        5.200       5.110       5.017       4.871       4.723       4.567       4.387       4.163       3.896       3.661    
        3.374       2.962       2.482       2.117       1.825       1.537       1.241      0.9366      0.5291       0.000    
   4    10.00       9.935       9.895       9.864       9.837       9.795       9.723       9.621       9.515       9.408    
        9.272       9.128       8.967       8.775       8.536       8.322       8.185       7.995       7.786       7.612    
        7.349       7.057       6.818       6.597       6.380       6.073       5.777       5.581       5.436       5.324    
        5.226       5.131       5.029       4.859       4.677       4.535       4.343       4.112       3.886       3.681    
        3.355       2.900       2.539       2.233       1.920       1.593       1.237      0.8814      0.4520       0.000    
   5    10.00       9.940       9.903       9.872       9.848       9.805       9.728       9.611       9.494       9.387    
        9.270       9.122       8.914       8.689       8.486       8.317       8.146       7.968       7.772       7.526    
        7.219       6.977       6.779       6.556       6.275       5.956       5.715       5.576       5.458       5.343    
        5.230       5.115       4.998       4.832       4.646       4.474       4.303       4.122       3.918       3.649    
        3.279       2.934       2.626       2.318       1.977       1.596       1.149      0.7415      0.3841       0.000    
   6    10.00       9.950       9.914       9.884       9.851       9.803       9.721       9.594       9.492       9.376    
        9.246       9.061       8.832       8.645       8.458       8.264       8.088       7.929       7.709       7.428    
        7.155       6.925       6.721       6.444       6.139       5.899       5.705       5.577       5.443       5.324    
        5.224       5.098       4.952       4.780       4.599       4.453       4.306       4.142       3.928       3.638    
        3.316       2.985       2.671       2.359       1.991       1.530       1.049      0.6966      0.3588       0.000    
   7    10.00       9.957       9.925       9.893       9.858       9.800       9.689       9.567       9.460       9.317    
        9.182       8.984       8.776       8.583       8.389       8.191       8.020       7.873       7.618       7.319    
        7.071       6.836       6.609       6.340       6.082       5.865       5.695       5.538       5.394       5.304    
        5.202       5.060       4.906       4.736       4.582       4.452       4.315       4.149       3.931       3.670    
        3.351       3.010       2.686       2.343       1.979       1.496       1.002      0.6628      0.3138       0.000    
   8    10.00       9.964       9.936       9.900       9.860       9.766       9.630       9.514       9.379       9.243    
        9.093       8.890       8.712       8.514       8.297       8.101       7.953       7.776       7.533       7.243    
        6.955       6.739       6.550       6.273       6.003       5.809       5.617       5.446       5.350       5.261    
        5.138       4.997       4.868       4.721       4.564       4.432       4.327       4.203       3.992       3.693    
        3.345       3.043       2.742       2.343       1.939       1.399      0.9282      0.6487      0.3003       0.000    
   9    10.00       9.971       9.940       9.899       9.830       9.705       9.561       9.424       9.306       9.164    
        8.987       8.806       8.628       8.437       8.211       8.029       7.889       7.679       7.439       7.139    
        6.891       6.676       6.405       6.118       5.890       5.717       5.526       5.386       5.293       5.190    
        5.078       4.953       4.831       4.703       4.570       4.447       4.346       4.236       4.019       3.695    
        3.377       3.111       2.794       2.412       1.813       1.204      0.8838      0.5482      0.2091       0.000    
  10    10.00       9.971       9.938       9.881       9.774       9.626       9.464       9.358       9.245       9.077    
        8.922       8.742       8.565       8.356       8.147       7.982       7.792       7.575       7.320       7.078    
        6.833       6.499       6.219       5.994       5.802       5.645       5.468       5.328       5.234       5.153    
        5.037       4.901       4.793       4.677       4.559       4.477       4.378       4.250       4.001       3.682    
        3.436       3.203       2.840       2.264       1.570       1.130      0.8012      0.4894      0.2442       0.000    
  11    10.00       9.971       9.926       9.838       9.717       9.550       9.407       9.318       9.183       9.039    
        8.890       8.701       8.487       8.263       8.087       7.909       7.729       7.495       7.247       7.008    
        6.654       6.332       6.111       5.910       5.725       5.550       5.381       5.273       5.198       5.116    
        4.982       4.857       4.770       4.666       4.574       4.483       4.370       4.232       3.998       3.745    
        3.487       3.184       2.789       2.153       1.505       1.061      0.7500      0.5693      0.3146       0.000    
  12    10.00       9.969       9.906       9.792       9.633       9.467       9.353       9.263       9.145       9.015    
        8.850       8.649       8.433       8.236       8.056       7.859       7.652       7.410       7.157       6.829    
        6.479       6.237       6.019       5.813       5.608       5.435       5.318       5.240       5.141       5.032    
        4.913       4.824       4.748       4.669       4.589       4.497       4.379       4.213       3.998       3.771    
        3.494       3.164       2.624       1.907       1.356       1.044      0.8320      0.6038      0.3444       0.000    
  13    10.00       9.958       9.860       9.703       9.537       9.394       9.302       9.222       9.122       8.996    
        8.821       8.611       8.413       8.254       8.046       7.803       7.560       7.299       7.015       6.694    
        6.388       6.125       5.888       5.674       5.476       5.352       5.282       5.166       5.039       4.941    
        4.867       4.800       4.732       4.668       4.591       4.511       4.405       4.217       3.999       3.731    
        3.412       2.995       2.366       1.787       1.387       1.121      0.8742      0.6051      0.2991       0.000    
  14    10.00       9.924       9.782       9.609       9.455       9.341       9.280       9.206       9.110       8.971    
        8.778       8.597       8.435       8.269       8.031       7.743       7.483       7.186       6.872       6.538    
        6.241       5.977       5.744       5.533       5.381       5.296       5.207       5.065       4.959       4.888    
        4.836       4.772       4.716       4.657       4.588       4.526       4.400       4.206       3.978       3.642    
        3.268       2.775       2.293       1.871       1.474       1.164      0.8894      0.6054      0.2699       0.000    
  15    10.00       9.857       9.699       9.544       9.420       9.333       9.264       9.195       9.099       8.969    
        8.797       8.621       8.460       8.224       7.943       7.666       7.377       7.070       6.696       6.341    
        6.066       5.811       5.593       5.435       5.321       5.232       5.121       4.990       4.903       4.854    
        4.793       4.743       4.701       4.644       4.581       4.513       4.378       4.196       3.907       3.546    
        3.159       2.719       2.330       1.897       1.563       1.232      0.9005      0.5998      0.2463       0.000    
  16    10.00       9.833       9.661       9.519       9.412       9.333       9.262       9.198       9.104       8.969    
        8.807       8.638       8.437       8.135       7.826       7.595       7.310       6.899       6.473       6.146    
        5.864       5.654       5.476       5.342       5.217       5.137       5.014       4.909       4.845       4.788    
        4.746       4.716       4.673       4.620       4.563       4.484       4.360       4.139       3.825       3.500    
        3.171       2.750       2.315       1.934       1.620       1.273      0.8983      0.5380      0.2026       0.000    
  17    10.00       9.810       9.638       9.523       9.428       9.347       9.278       9.205       9.103       8.976    
        8.825       8.610       8.334       8.007       7.748       7.529       7.177       6.714       6.284       5.969    
        5.746       5.512       5.314       5.171       5.068       4.966       4.860       4.796       4.745       4.719    
        4.707       4.679       4.635       4.583       4.523       4.437       4.291       4.098       3.848       3.511    
        3.139       2.696       2.295       1.959       1.638       1.283      0.9175      0.5607      0.2373       0.000    
  18    10.00       9.799       9.637       9.538       9.452       9.374       9.304       9.217       9.116       8.979    
        8.797       8.542       8.235       7.958       7.704       7.381       6.973       6.550       6.171       5.863    
        5.588       5.287       5.118       4.999       4.910       4.793       4.726       4.671       4.640       4.651    
        4.650       4.626       4.583       4.525       4.464       4.374       4.237       4.083       3.867       3.558    
        3.077       2.607       2.280       1.962       1.689       1.316      0.9134      0.5506      0.2374       0.000    
  19    10.00       9.808       9.672       9.570       9.479       9.400       9.318       9.236       9.143       8.985    
        8.770       8.497       8.193       7.885       7.548       7.198       6.821       6.414       6.033       5.706    
        5.386       5.127       4.992       4.901       4.774       4.671       4.614       4.564       4.557       4.563    
        4.574       4.563       4.511       4.460       4.412       4.345       4.218       4.051       3.835       3.473    
        2.990       2.592       2.267       1.955       1.649       1.264      0.8786      0.5478      0.2584       0.000    
  20    10.00       9.818       9.702       9.613       9.524       9.431       9.334       9.246       9.152       8.991    
        8.756       8.472       8.118       7.717       7.331       7.046       6.667       6.233       5.899       5.576    
        5.292       5.077       4.914       4.775       4.611       4.540       4.503       4.479       4.485       4.487    
        4.495       4.475       4.436       4.410       4.374       4.308       4.162       3.995       3.749       3.344    
        2.928       2.613       2.238       1.882       1.548       1.168      0.8815      0.5444      0.2416       0.000    
  21    10.00       9.845       9.741       9.650       9.553       9.464       9.357       9.261       9.158       8.976    
        8.722       8.374       7.930       7.463       7.106       6.848       6.493       6.177       5.865       5.515    
        5.246       5.008       4.804       4.539       4.404       4.367       4.311       4.352       4.388       4.385    
        4.382       4.357       4.358       4.348       4.323       4.235       4.095       3.952       3.594       3.174    
        2.865       2.523       2.140       1.808       1.454       1.121      0.7982      0.4795      0.2411       0.000    
  22    10.00       9.878       9.769       9.670       9.576       9.492       9.370       9.245       9.125       8.937    
        8.625       8.187       7.688       7.251       6.946       6.678       6.409       6.181       5.837       5.494    
        5.210       4.871       4.503       4.228       4.126       4.026       4.040       4.147       4.186       4.206    
        4.225       4.225       4.256       4.280       4.257       4.169       4.034       3.769       3.362       3.094    
        2.762       2.394       2.049       1.729       1.427       1.031      0.6927      0.4596      0.2586       0.000    
  23    10.00       9.879       9.774       9.685       9.586       9.474       9.336       9.222       9.117       8.879    
        8.497       8.026       7.572       7.192       6.880       6.653       6.400       6.101       5.772       5.499    
        5.104       4.606       4.213       3.933       3.521       3.520       3.740       3.861       3.948       4.036    
        4.074       4.109       4.151       4.189       4.170       4.085       3.887       3.585       3.258       2.928    
        2.610       2.305       1.973       1.721       1.340      0.9376      0.6735      0.4417      0.2296       0.000    
  24    10.00       9.906       9.786       9.670       9.554       9.426       9.301       9.204       9.086       8.805    
        8.370       7.926       7.550       7.218       6.920       6.623       6.314       6.042       5.782       5.462    
        4.990       4.496       4.030       3.182       2.278       2.802       3.305       3.598       3.763       3.899    
        3.974       4.023       4.072       4.089       4.068       3.956       3.737       3.492       3.136       2.787    
        2.538       2.245       1.932       1.609       1.199      0.8696      0.6473      0.4135      0.1826       0.000    
  25    10.00       9.897       9.759       9.616       9.481       9.365       9.269       9.172       9.025       8.734    
        8.278       7.865       7.576       7.266       6.920       6.612       6.323       6.085       5.843       5.430    
        4.890       4.405       3.660       2.284     -0.5834       2.179       2.974       3.440       3.684       3.827    
        3.913       3.971       4.012       4.017       3.982       3.855       3.622       3.335       3.044       2.753    
        2.471       2.154       1.797       1.455       1.066      0.7976      0.6437      0.4013      0.1488       0.000    
  26    10.00       9.871       9.694       9.533       9.424       9.330       9.236       9.116       8.944       8.584    
        8.161       7.872       7.594       7.285       6.961       6.665       6.392       6.155       5.850       5.411    
        4.936       4.400       3.747       3.001       2.317       2.675       3.147       3.474       3.674       3.805    
        3.886       3.946       3.972       3.965       3.909       3.752       3.489       3.257       3.026       2.712    
        2.421       2.063       1.653       1.285      0.9683      0.7793      0.6078      0.3569      0.1519       0.000    
  27    10.00       9.843       9.654       9.504       9.412       9.289       9.165       9.014       8.783       8.444    
        8.144       7.888       7.607       7.305       6.987       6.752       6.562       6.241       5.856       5.408    
        5.004       4.615       4.087       3.594       3.205       3.261       3.440       3.600       3.727       3.820    
        3.905       3.954       3.962       3.934       3.853       3.671       3.461       3.258       2.987       2.692    
        2.392       1.959       1.490       1.144      0.9233      0.7656      0.5772      0.3767      0.1818       0.000    
  28    10.00       9.822       9.684       9.516       9.360       9.209       9.072       8.894       8.664       8.401    
        8.154       7.926       7.647       7.310       7.027       6.836       6.624       6.272       5.826       5.430    
        5.143       4.850       4.433       4.047       3.797       3.713       3.704       3.752       3.833       3.911    
        3.965       3.977       3.969       3.919       3.809       3.643       3.474       3.232       2.950       2.652    
        2.283       1.875       1.409       1.067      0.9127      0.7620      0.5945      0.3931      0.1824       0.000    
  29    10.00       9.829       9.656       9.478       9.292       9.147       8.991       8.794       8.600       8.391    
        8.171       7.945       7.674       7.389       7.145       6.918       6.636       6.246       5.839       5.530    
        5.284       5.026       4.682       4.336       4.132       4.020       3.949       3.947       3.986       4.012    
        4.016       4.010       3.981       3.910       3.782       3.637       3.477       3.250       2.937       2.559    
        2.221       1.787       1.321       1.052      0.9155      0.7671      0.5898      0.3838      0.1910       0.000    
  30    10.00       9.804       9.630       9.417       9.228       9.094       8.929       8.755       8.605       8.418    
        8.193       7.948       7.701       7.474       7.256       7.001       6.643       6.280       5.953       5.657    
        5.444       5.187       4.873       4.572       4.326       4.227       4.163       4.138       4.115       4.093    
        4.068       4.043       3.995       3.899       3.780       3.663       3.501       3.209       2.821       2.431    
        2.085       1.684       1.330       1.081      0.9364      0.7688      0.5793      0.4022      0.1974       0.000    
  31    10.00       9.778       9.578       9.374       9.203       9.065       8.908       8.754       8.606       8.424    
        8.202       7.957       7.743       7.555       7.352       7.065       6.711       6.393       6.134       5.869    
        5.641       5.350       5.040       4.786       4.536       4.377       4.313       4.250       4.204       4.157    
        4.124       4.074       4.004       3.909       3.791       3.657       3.402       3.074       2.748       2.366    
        2.038       1.637       1.290       1.108      0.9537      0.7957      0.5985      0.4025      0.1909       0.000    
  32    10.00       9.762       9.546       9.372       9.228       9.090       8.926       8.751       8.572       8.400    
        8.183       7.971       7.781       7.574       7.387       7.144       6.868       6.627       6.359       6.084    
        5.854       5.581       5.267       4.994       4.734       4.508       4.423       4.341       4.276       4.210    
        4.161       4.112       4.017       3.895       3.782       3.597       3.279       2.967       2.678       2.327    
        1.944       1.569       1.312       1.172       1.002      0.8025      0.5939      0.3823      0.1908       0.000    
  33    10.00       9.755       9.570       9.431       9.287       9.127       8.931       8.737       8.545       8.350    
        8.169       7.991       7.804       7.608       7.398       7.210       7.008       6.803       6.582       6.313    
        6.045       5.789       5.524       5.204       4.885       4.627       4.499       4.420       4.340       4.256    
        4.195       4.125       4.023       3.902       3.737       3.480       3.151       2.885       2.604       2.193    
        1.842       1.595       1.389       1.222       1.028      0.8180      0.5624      0.3364      0.1516       0.000    
  34    10.00       9.777       9.626       9.495       9.336       9.140       8.934       8.709       8.498       8.335    
        8.173       8.010       7.842       7.639       7.455       7.273       7.097       6.933       6.722       6.450    
        6.196       5.964       5.701       5.369       5.019       4.732       4.565       4.472       4.381       4.287    
        4.206       4.131       4.026       3.877       3.675       3.358       3.035       2.791       2.455       2.091    
        1.872       1.707       1.508       1.293       1.038      0.7421      0.4547      0.2695      0.1118       0.000    
  35    10.00       9.814       9.679       9.546       9.376       9.156       8.921       8.671       8.471       8.331    
        8.223       8.060       7.873       7.658       7.462       7.333       7.204       7.036       6.819       6.559    
        6.316       6.086       5.844       5.474       5.078       4.806       4.623       4.513       4.408       4.302    
        4.219       4.128       4.006       3.813       3.502       3.170       2.952       2.695       2.348       2.126    
        1.971       1.783       1.584       1.374       1.051      0.6316      0.3496      0.2299      0.1167       0.000    
  36    10.00       9.836       9.719       9.592       9.412       9.152       8.866       8.631       8.487       8.379    
        8.232       8.048       7.878       7.688       7.515       7.387       7.264       7.117       6.944       6.704    
        6.453       6.209       5.913       5.518       5.127       4.851       4.677       4.549       4.421       4.309    
        4.218       4.102       3.910       3.625       3.340       3.107       2.899       2.628       2.348       2.199    
        2.041       1.872       1.671       1.399      0.9598      0.5326      0.3287      0.2105      0.1082       0.000    
  37    10.00       9.854       9.763       9.627       9.389       9.105       8.853       8.670       8.550       8.420    
        8.231       8.035       7.888       7.725       7.565       7.442       7.331       7.193       7.012       6.805    
        6.599       6.334       5.967       5.594       5.226       4.914       4.707       4.548       4.433       4.311    
        4.192       4.025       3.742       3.479       3.273       3.071       2.854       2.639       2.436       2.268    
        2.116       1.926       1.697       1.340      0.8815      0.5148      0.3086      0.1962      9.8398E-02   0.000    
  38    10.00       9.876       9.767       9.619       9.372       9.080       8.867       8.731       8.608       8.457    
        8.257       8.050       7.906       7.756       7.597       7.475       7.380       7.261       7.085       6.905    
        6.716       6.417       6.003       5.602       5.246       4.943       4.720       4.544       4.428       4.316    
        4.149       3.878       3.622       3.451       3.245       3.042       2.883       2.699       2.512       2.350    
        2.170       1.912       1.621       1.233      0.7769      0.4948      0.3482      0.2169      9.7364E-02   0.000    
  39    10.00       9.875       9.752       9.597       9.360       9.096       8.903       8.783       8.633       8.467    
        8.305       8.097       7.932       7.791       7.638       7.509       7.401       7.287       7.146       6.983    
        6.768       6.454       6.032       5.586       5.220       4.941       4.691       4.512       4.416       4.311    
        4.066       3.775       3.606       3.411       3.217       3.070       2.936       2.767       2.585       2.432    
        2.172       1.805       1.461       1.041      0.6950      0.5368      0.3998      0.2603      0.1339       0.000    
  40    10.00       9.866       9.758       9.600       9.383       9.161       8.975       8.817       8.640       8.488    
        8.367       8.166       7.959       7.815       7.674       7.530       7.412       7.321       7.199       7.011    
        6.769       6.412       5.985       5.568       5.191       4.903       4.627       4.485       4.400       4.261    
        4.038       3.810       3.582       3.376       3.236       3.107       2.978       2.820       2.651       2.451    
        2.099       1.698       1.325      0.9846      0.7465      0.5834      0.4467      0.3154      0.1549       0.000    
  41    10.00       9.884       9.799       9.646       9.422       9.193       9.016       8.876       8.703       8.521    
        8.378       8.198       8.008       7.872       7.709       7.536       7.433       7.337       7.184       6.984    
        6.738       6.393       5.967       5.559       5.184       4.802       4.544       4.463       4.373       4.268    
        4.087       3.813       3.581       3.415       3.274       3.157       3.016       2.864       2.689       2.378    
        1.965       1.573       1.248      0.9956      0.7894      0.6379      0.4917      0.3474      0.1830       0.000    
  42    10.00       9.914       9.819       9.674       9.482       9.265       9.066       8.921       8.767       8.569    
        8.388       8.215       8.056       7.926       7.756       7.571       7.449       7.321       7.156       6.932    
        6.653       6.279       5.910       5.507       5.020       4.677       4.535       4.471       4.393       4.277    
        4.066       3.826       3.606       3.438       3.323       3.198       3.072       2.907       2.629       2.218    
        1.855       1.562       1.278      0.9924      0.8006      0.6719      0.5315      0.3623      0.2011       0.000    
  43    10.00       9.932       9.832       9.684       9.496       9.317       9.140       8.979       8.792       8.590    
        8.424       8.251       8.094       7.974       7.816       7.612       7.452       7.307       7.082       6.797    
        6.523       6.165       5.821       5.364       4.904       4.673       4.559       4.485       4.409       4.288    
        4.087       3.866       3.654       3.487       3.376       3.252       3.088       2.853       2.448       2.082    
        1.854       1.594       1.294      0.9976      0.7941      0.6748      0.5664      0.3924      0.1839       0.000    
  44    10.00       9.926       9.841       9.687       9.518       9.389       9.214       8.998       8.787       8.620    
        8.455       8.284       8.146       8.021       7.840       7.627       7.444       7.271       7.006       6.716    
        6.389       6.028       5.665       5.207       4.858       4.685       4.588       4.522       4.439       4.287    
        4.080       3.902       3.715       3.559       3.445       3.279       3.061       2.725       2.310       2.065    
        1.857       1.584       1.286       1.014      0.8058      0.6778      0.5675      0.3849      0.1696       0.000    
  45    10.00       9.911       9.810       9.687       9.564       9.402       9.221       9.018       8.807       8.641    
        8.473       8.319       8.198       8.058       7.864       7.636       7.431       7.234       6.947       6.604    
        6.227       5.842       5.450       5.110       4.866       4.719       4.624       4.555       4.452       4.327    
        4.147       3.945       3.777       3.618       3.460       3.283       3.043       2.683       2.322       2.035    
        1.797       1.539       1.259       1.015      0.8326      0.7260      0.5608      0.3339      0.1522       0.000    
  46    10.00       9.893       9.789       9.691       9.555       9.371       9.196       9.031       8.826       8.650    
        8.501       8.357       8.236       8.073       7.866       7.665       7.446       7.189       6.877       6.505    
        6.058       5.674       5.358       5.098       4.912       4.782       4.666       4.574       4.493       4.353    
        4.163       3.988       3.825       3.644       3.487       3.315       3.045       2.630       2.249       1.993    
        1.767       1.519       1.254       1.039      0.8975      0.7602      0.5096      0.2505      0.1089       0.000    
  47    10.00       9.887       9.781       9.648       9.490       9.340       9.190       9.012       8.826       8.669    
        8.533       8.405       8.238       8.061       7.876       7.681       7.445       7.144       6.851       6.398    
        5.910       5.608       5.335       5.130       4.958       4.831       4.716       4.604       4.509       4.365    
        4.168       3.995       3.832       3.661       3.522       3.317       2.942       2.568       2.248       1.974    
        1.776       1.541       1.304       1.096      0.9206      0.6990      0.4204      0.2197      9.1490E-02   0.000    
  48    10.00       9.874       9.748       9.607       9.463       9.331       9.179       9.016       8.845       8.690    
        8.552       8.404       8.223       8.041       7.861       7.668       7.443       7.159       6.794       6.344    
        5.920       5.610       5.343       5.155       5.015       4.860       4.745       4.651       4.533       4.339    
        4.146       3.978       3.828       3.700       3.519       3.248       2.890       2.551       2.248       2.005    
        1.792       1.567       1.354       1.119      0.8555      0.5692      0.3600      0.2135      9.6457E-02   0.000    
  49    10.00       9.863       9.727       9.588       9.471       9.333       9.173       9.013       8.875       8.714    
        8.550       8.365       8.187       8.035       7.829       7.642       7.455       7.139       6.777       6.418    
        5.970       5.624       5.359       5.194       5.031       4.865       4.775       4.687       4.501       4.268    
        4.100       3.966       3.856       3.692       3.482       3.239       2.879       2.540       2.302       2.045    
        1.793       1.586       1.359       1.082      0.7586      0.5081      0.3603      0.2326      0.1193       0.000    
  50    10.00       9.869       9.732       9.591       9.463       9.328       9.185       9.028       8.882       8.740    
        8.539       8.346       8.182       7.978       7.770       7.627       7.449       7.203       6.846       6.490    
        6.034       5.599       5.368       5.201       5.031       4.896       4.788       4.671       4.452       4.229    
        4.091       3.980       3.852       3.681       3.486       3.254       2.890       2.542       2.311       2.079    
        1.839       1.579       1.323       1.026      0.7076      0.5201      0.3878      0.2629      0.1585       0.000    

 HEAD WILL BE SAVED ON UNIT   51 AT END OF TIME STEP  86, STRESS PERIOD    2

 DRAWDOWN WILL BE SAVED ON UNIT   52 AT END OF TIME STEP  86, STRESS PERIOD    2
1
  VOLUMETRIC BUDGET FOR ENTIRE MODEL AT END OF TIME STEP 86 IN STRESS PERIOD   2
  ------------------------------------------------------------------------------

     CUMULATIVE VOLUMES      L**3       RATES FOR THIS TIME STEP      L**3/T
     ------------------                 ------------------------

           IN:                                      IN:
           ---                                      ---
             STORAGE =       41325.0430               STORAGE =         436.5142
       CONSTANT HEAD =       33849.3281         CONSTANT HEAD =         424.5386
               WELLS =           0.0000                 WELLS =           0.0000

            TOTAL IN =       75174.3750              TOTAL IN =         861.0529

          OUT:                                     OUT:
          ----                                     ----
             STORAGE =       1.1143E-02               STORAGE =           0.0000
       CONSTANT HEAD =       32174.3477         CONSTANT HEAD =         361.0530
               WELLS =       43000.0000                 WELLS =         500.0000

           TOTAL OUT =       75174.3594             TOTAL OUT =         861.0530

            IN - OUT =       1.5625E-02              IN - OUT =      -1.8311E-04

 PERCENT DISCREPANCY =           0.00     PERCENT DISCREPANCY =           0.00






          TIME SUMMARY AT END OF TIME STEP  86 IN STRESS PERIOD    2
                    SECONDS     MINUTES      HOURS       DAYS        YEARS
                    -----------------------------------------------------------
   TIME STEP LENGTH  86400.      1440.0      24.000      1.0000     2.73785E-03
 STRESS PERIOD TIME 7.43040E+06 1.23840E+05  2064.0      86.000     0.23546    
         TOTAL TIME 7.51680E+06 1.25280E+05  2088.0      87.000     0.23819    
1
 
 SOLVING FOR HEAD 

 OUTPUT CONTROL FOR STRESS PERIOD    2   TIME STEP  87
    SAVE HEAD FOR ALL LAYERS
    SAVE DRAWDOWN FOR ALL LAYERS
    SAVE BUDGET
    PRINT HEAD FOR ALL LAYERS
    PRINT BUDGET
 UBDSV1 SAVING "         STORAGE" ON UNIT  53 AT TIME STEP 87, STRESS PERIOD   2
 UBDSV2 SAVING "   CONSTANT HEAD" ON UNIT  53 AT TIME STEP 87, STRESS PERIOD   2
 UBDSV1 SAVING "FLOW RIGHT FACE " ON UNIT  53 AT TIME STEP 87, STRESS PERIOD   2
 UBDSV1 SAVING "FLOW FRONT FACE " ON UNIT  53 AT TIME STEP 87, STRESS PERIOD   2
1
              HEAD IN LAYER   1 AT END OF TIME STEP  87 IN STRESS PERIOD    2
  ---------------------------------------------------------------------------

            1           2           3           4           5           6           7           8           9          10
           11          12          13          14          15          16          17          18          19          20
           21          22          23          24          25          26          27          28          29          30
           31          32          33          34          35          36          37          38          39          40
           41          42          43          44          45          46          47          48          49          50
 ........................................................................................................................
   1    10.00       9.949       9.899       9.839       9.792       9.753       9.700       9.627       9.548       9.475    
        9.314       9.113       8.964       8.799       8.622       8.445       8.280       8.091       7.838       7.587    
        7.416       7.221       6.964       6.704       6.471       6.270       5.984       5.723       5.540       5.349    
        5.186       5.082       4.971       4.847       4.728       4.581       4.422       4.208       3.963       3.694    
        3.346       2.991       2.523       2.009       1.622       1.342       1.133      0.8938      0.5248       0.000    
   2    10.00       9.944       9.890       9.840       9.800       9.762       9.703       9.629       9.556       9.457    
        9.299       9.119       8.952       8.801       8.638       8.455       8.259       8.063       7.828       7.575    
        7.389       7.228       6.954       6.672       6.466       6.238       5.960       5.713       5.501       5.320    
        5.184       5.089       4.996       4.863       4.724       4.577       4.395       4.196       3.958       3.651    
        3.326       3.024       2.533       2.023       1.680       1.431       1.190      0.9232      0.5576       0.000    
   3    10.00       9.935       9.890       9.855       9.817       9.777       9.714       9.626       9.537       9.429    
        9.286       9.126       8.965       8.812       8.618       8.387       8.195       8.027       7.810       7.588    
        7.397       7.167       6.895       6.647       6.422       6.167       5.899       5.654       5.437       5.304    
        5.194       5.104       5.011       4.865       4.718       4.562       4.382       4.158       3.892       3.657    
        3.370       2.959       2.479       2.114       1.824       1.535       1.240      0.9357      0.5286       0.000    
   4    10.00       9.935       9.895       9.863       9.837       9.795       9.722       9.620       9.514       9.407    
        9.271       9.127       8.965       8.773       8.533       8.319       8.182       7.992       7.782       7.609    
        7.345       7.052       6.813       6.592       6.375       6.067       5.771       5.575       5.430       5.318    
        5.220       5.125       5.023       4.853       4.672       4.530       4.338       4.107       3.881       3.677    
        3.351       2.897       2.537       2.230       1.918       1.592       1.236      0.8805      0.4515       0.000    
   5    10.00       9.940       9.903       9.872       9.848       9.805       9.728       9.611       9.493       9.385    
        9.269       9.121       8.912       8.686       8.483       8.314       8.142       7.965       7.768       7.522    
        7.214       6.972       6.774       6.551       6.269       5.950       5.709       5.570       5.452       5.337    
        5.224       5.109       4.992       4.826       4.641       4.469       4.297       4.117       3.913       3.644    
        3.275       2.931       2.623       2.315       1.975       1.595       1.148      0.7407      0.3837       0.000    
   6    10.00       9.950       9.914       9.883       9.851       9.803       9.720       9.594       9.491       9.375    
        9.244       9.059       8.830       8.642       8.455       8.261       8.084       7.925       7.705       7.423    
        7.150       6.920       6.716       6.438       6.133       5.893       5.699       5.570       5.437       5.317    
        5.218       5.091       4.946       4.774       4.593       4.447       4.300       4.137       3.923       3.633    
        3.312       2.981       2.668       2.357       1.989       1.529       1.048      0.6959      0.3584       0.000    
   7    10.00       9.957       9.925       9.893       9.857       9.799       9.688       9.566       9.459       9.315    
        9.181       8.982       8.774       8.580       8.386       8.187       8.016       7.869       7.614       7.314    
        7.066       6.831       6.603       6.334       6.076       5.859       5.689       5.532       5.387       5.297    
        5.195       5.054       4.899       4.730       4.576       4.446       4.309       4.144       3.926       3.665    
        3.347       3.007       2.683       2.340       1.977       1.494       1.001      0.6621      0.3135       0.000    
   8    10.00       9.964       9.936       9.900       9.859       9.765       9.629       9.513       9.378       9.241    
        9.091       8.887       8.709       8.511       8.293       8.097       7.948       7.772       7.528       7.237    
        6.949       6.733       6.544       6.266       5.997       5.803       5.610       5.439       5.343       5.254    
        5.131       4.990       4.861       4.715       4.558       4.425       4.321       4.197       3.987       3.688    
        3.341       3.040       2.738       2.341       1.936       1.398      0.9272      0.6481      0.3000       0.000    
   9    10.00       9.971       9.939       9.899       9.830       9.705       9.560       9.423       9.304       9.162    
        8.984       8.803       8.625       8.433       8.208       8.025       7.884       7.674       7.434       7.134    
        6.885       6.670       6.398       6.111       5.883       5.710       5.519       5.379       5.286       5.183    
        5.071       4.946       4.824       4.696       4.563       4.441       4.340       4.230       4.013       3.690    
        3.372       3.107       2.791       2.409       1.811       1.203      0.8828      0.5476      0.2089       0.000    
  10    10.00       9.971       9.938       9.881       9.774       9.625       9.463       9.356       9.243       9.075    
        8.919       8.739       8.562       8.353       8.143       7.978       7.787       7.570       7.314       7.072    
        6.827       6.492       6.212       5.987       5.795       5.638       5.460       5.320       5.227       5.146    
        5.029       4.894       4.786       4.669       4.552       4.470       4.372       4.244       3.996       3.677    
        3.431       3.198       2.837       2.261       1.568       1.128      0.8003      0.4888      0.2439       0.000    
  11    10.00       9.971       9.926       9.838       9.716       9.549       9.406       9.316       9.181       9.037    
        8.887       8.698       8.484       8.259       8.083       7.904       7.724       7.490       7.241       7.002    
        6.647       6.325       6.104       5.903       5.717       5.542       5.373       5.265       5.190       5.108    
        4.974       4.849       4.762       4.659       4.567       4.476       4.364       4.226       3.993       3.740    
        3.482       3.179       2.785       2.150       1.503       1.060      0.7492      0.5686      0.3143       0.000    
  12    10.00       9.969       9.905       9.791       9.632       9.465       9.351       9.261       9.142       9.013    
        8.848       8.646       8.430       8.232       8.052       7.854       7.646       7.404       7.151       6.822    
        6.472       6.229       6.011       5.805       5.599       5.426       5.310       5.232       5.133       5.024    
        4.905       4.816       4.740       4.661       4.582       4.490       4.372       4.206       3.992       3.765    
        3.489       3.160       2.620       1.905       1.354       1.043      0.8310      0.6031      0.3440       0.000    
  13    10.00       9.958       9.859       9.703       9.536       9.392       9.300       9.220       9.119       8.993    
        8.818       8.607       8.409       8.250       8.041       7.797       7.555       7.293       7.009       6.687    
        6.381       6.117       5.880       5.666       5.468       5.343       5.273       5.157       5.030       4.932    
        4.859       4.791       4.724       4.660       4.583       4.504       4.398       4.210       3.993       3.725    
        3.407       2.990       2.363       1.784       1.385       1.120      0.8732      0.6044      0.2988       0.000    
  14    10.00       9.923       9.781       9.608       9.453       9.340       9.278       9.204       9.107       8.968    
        8.775       8.594       8.431       8.265       8.026       7.738       7.477       7.180       6.865       6.530    
        6.233       5.969       5.735       5.525       5.372       5.287       5.198       5.057       4.950       4.879    
        4.828       4.764       4.708       4.649       4.580       4.518       4.392       4.199       3.972       3.637    
        3.263       2.771       2.290       1.869       1.472       1.162      0.8883      0.6047      0.2696       0.000    
  15    10.00       9.856       9.698       9.543       9.418       9.331       9.262       9.193       9.096       8.966    
        8.794       8.618       8.456       8.220       7.938       7.660       7.371       7.063       6.688       6.333    
        6.058       5.803       5.584       5.426       5.312       5.223       5.112       4.981       4.894       4.845    
        4.785       4.734       4.692       4.635       4.573       4.505       4.370       4.189       3.900       3.540    
        3.154       2.715       2.327       1.894       1.561       1.231      0.8994      0.5991      0.2460       0.000    
  16    10.00       9.832       9.660       9.518       9.411       9.331       9.260       9.196       9.101       8.966    
        8.804       8.634       8.433       8.130       7.821       7.589       7.303       6.892       6.465       6.137    
        5.856       5.645       5.467       5.333       5.208       5.128       5.005       4.900       4.836       4.779    
        4.736       4.707       4.664       4.611       4.554       4.476       4.352       4.131       3.818       3.494    
        3.166       2.746       2.312       1.931       1.618       1.272      0.8972      0.5373      0.2024       0.000    
  17    10.00       9.810       9.637       9.522       9.426       9.345       9.276       9.203       9.100       8.974    
        8.821       8.606       8.329       8.002       7.742       7.523       7.171       6.706       6.275       5.961    
        5.737       5.502       5.305       5.161       5.059       4.956       4.851       4.787       4.736       4.709    
        4.698       4.669       4.626       4.574       4.514       4.429       4.283       4.090       3.841       3.505    
        3.134       2.692       2.292       1.957       1.636       1.281      0.9164      0.5600      0.2370       0.000    
  18    10.00       9.799       9.636       9.537       9.450       9.372       9.302       9.214       9.113       8.977    
        8.794       8.538       8.230       7.952       7.698       7.375       6.965       6.542       6.163       5.854    
        5.578       5.278       5.108       4.989       4.900       4.783       4.716       4.661       4.630       4.642    
        4.641       4.617       4.573       4.516       4.455       4.365       4.229       4.075       3.860       3.552    
        3.072       2.603       2.277       1.959       1.687       1.314      0.9123      0.5499      0.2371       0.000    
  19    10.00       9.807       9.671       9.569       9.477       9.398       9.316       9.234       9.141       8.982    
        8.766       8.493       8.188       7.879       7.541       7.191       6.813       6.405       6.024       5.697    
        5.377       5.117       4.983       4.891       4.764       4.661       4.604       4.554       4.547       4.553    
        4.564       4.554       4.501       4.451       4.403       4.336       4.209       4.043       3.827       3.466    
        2.984       2.588       2.264       1.952       1.647       1.262      0.8775      0.5472      0.2581       0.000    
  20    10.00       9.818       9.702       9.612       9.523       9.430       9.332       9.244       9.149       8.988    
        8.753       8.468       8.113       7.711       7.324       7.039       6.659       6.224       5.890       5.566    
        5.282       5.067       4.904       4.765       4.601       4.529       4.493       4.469       4.475       4.477    
        4.485       4.465       4.426       4.401       4.364       4.299       4.153       3.987       3.742       3.337    
        2.923       2.608       2.235       1.879       1.546       1.166      0.8804      0.5438      0.2414       0.000    
  21    10.00       9.844       9.740       9.649       9.552       9.462       9.355       9.259       9.156       8.973    
        8.719       8.369       7.925       7.456       7.099       6.840       6.485       6.168       5.856       5.506    
        5.236       4.998       4.794       4.529       4.393       4.357       4.301       4.341       4.378       4.375    
        4.372       4.347       4.347       4.339       4.313       4.226       4.086       3.944       3.587       3.168    
        2.860       2.519       2.137       1.805       1.452       1.119      0.7973      0.4790      0.2408       0.000    
  22    10.00       9.878       9.768       9.669       9.575       9.490       9.368       9.243       9.123       8.934    
        8.621       8.182       7.682       7.244       6.938       6.670       6.401       6.172       5.828       5.485    
        5.201       4.860       4.493       4.217       4.116       4.015       4.029       4.136       4.176       4.196    
        4.214       4.215       4.246       4.270       4.247       4.160       4.025       3.761       3.356       3.088    
        2.757       2.390       2.046       1.726       1.425       1.030      0.6919      0.4590      0.2583       0.000    
  23    10.00       9.879       9.773       9.684       9.585       9.473       9.334       9.220       9.114       8.876    
        8.493       8.021       7.565       7.184       6.872       6.645       6.392       6.092       5.763       5.489    
        5.094       4.596       4.203       3.922       3.510       3.509       3.729       3.850       3.938       4.025    
        4.064       4.098       4.140       4.178       4.159       4.075       3.878       3.577       3.252       2.922    
        2.605       2.301       1.970       1.718       1.338      0.9364      0.6727      0.4412      0.2293       0.000    
  24    10.00       9.906       9.786       9.669       9.553       9.424       9.299       9.202       9.083       8.802    
        8.365       7.921       7.544       7.211       6.912       6.614       6.305       6.033       5.773       5.452    
        4.980       4.485       4.019       3.171       2.267       2.791       3.294       3.587       3.752       3.888    
        3.963       4.012       4.061       4.078       4.057       3.946       3.728       3.484       3.129       2.781    
        2.534       2.242       1.929       1.607       1.198      0.8685      0.6465      0.4130      0.1824       0.000    
  25    10.00       9.897       9.758       9.615       9.480       9.363       9.267       9.169       9.023       8.731    
        8.273       7.859       7.570       7.259       6.912       6.604       6.314       6.076       5.834       5.420    
        4.880       4.394       3.649       2.273     -0.5952       2.167       2.963       3.428       3.673       3.815    
        3.902       3.960       4.001       4.007       3.971       3.845       3.613       3.327       3.038       2.747    
        2.466       2.151       1.794       1.453       1.065      0.7965      0.6428      0.4008      0.1486       0.000    
  26    10.00       9.871       9.693       9.532       9.423       9.328       9.234       9.114       8.941       8.580    
        8.156       7.866       7.588       7.278       6.953       6.657       6.384       6.146       5.841       5.401    
        4.926       4.389       3.736       2.990       2.306       2.663       3.136       3.463       3.663       3.794    
        3.875       3.935       3.961       3.954       3.898       3.743       3.481       3.250       3.019       2.706    
        2.416       2.059       1.650       1.284      0.9669      0.7782      0.6070      0.3564      0.1517       0.000    
  27    10.00       9.843       9.653       9.502       9.411       9.287       9.163       9.011       8.780       8.439    
        8.139       7.882       7.600       7.298       6.979       6.744       6.554       6.232       5.846       5.398    
        4.994       4.605       4.077       3.584       3.194       3.250       3.429       3.589       3.716       3.809    
        3.894       3.943       3.951       3.923       3.843       3.662       3.452       3.250       2.981       2.687    
        2.387       1.956       1.487       1.143      0.9220      0.7645      0.5764      0.3762      0.1815       0.000    
  28    10.00       9.822       9.683       9.514       9.358       9.207       9.069       8.891       8.661       8.397    
        8.149       7.920       7.640       7.303       7.019       6.828       6.616       6.263       5.816       5.420    
        5.133       4.840       4.423       4.036       3.786       3.702       3.693       3.741       3.822       3.900    
        3.954       3.966       3.958       3.909       3.799       3.634       3.465       3.224       2.944       2.646    
        2.279       1.872       1.407       1.066      0.9114      0.7609      0.5937      0.3926      0.1821       0.000    
  29    10.00       9.828       9.655       9.477       9.290       9.144       8.988       8.791       8.596       8.386    
        8.166       7.939       7.667       7.382       7.137       6.911       6.628       6.238       5.830       5.521    
        5.275       5.016       4.672       4.326       4.121       4.009       3.939       3.936       3.976       4.001    
        4.005       3.999       3.971       3.900       3.772       3.628       3.468       3.243       2.931       2.554    
        2.217       1.784       1.319       1.050      0.9142      0.7660      0.5890      0.3833      0.1907       0.000    
  30    10.00       9.803       9.629       9.415       9.225       9.092       8.926       8.752       8.601       8.413    
        8.188       7.943       7.695       7.467       7.249       6.994       6.635       6.272       5.944       5.647    
        5.434       5.177       4.863       4.562       4.316       4.217       4.152       4.128       4.104       4.082    
        4.057       4.033       3.984       3.890       3.770       3.653       3.492       3.202       2.815       2.426    
        2.081       1.682       1.328       1.079      0.9350      0.7677      0.5785      0.4017      0.1971       0.000    
  31    10.00       9.778       9.577       9.372       9.201       9.062       8.905       8.751       8.602       8.419    
        8.197       7.951       7.737       7.549       7.345       7.058       6.704       6.385       6.125       5.860    
        5.632       5.340       5.030       4.776       4.525       4.366       4.302       4.240       4.194       4.147    
        4.113       4.064       3.994       3.899       3.782       3.649       3.394       3.067       2.743       2.361    
        2.034       1.634       1.288       1.107      0.9524      0.7947      0.5977      0.4020      0.1906       0.000    
  32    10.00       9.761       9.545       9.370       9.226       9.087       8.923       8.748       8.568       8.396    
        8.178       7.966       7.776       7.568       7.380       7.137       6.860       6.619       6.350       6.075    
        5.845       5.572       5.258       4.984       4.724       4.497       4.412       4.331       4.266       4.200    
        4.151       4.102       4.007       3.886       3.773       3.589       3.271       2.961       2.673       2.323    
        1.941       1.567       1.310       1.170       1.001      0.8014      0.5931      0.3818      0.1906       0.000    
  33    10.00       9.754       9.569       9.429       9.285       9.124       8.928       8.734       8.542       8.346    
        8.164       7.986       7.799       7.602       7.392       7.203       7.001       6.795       6.574       6.305    
        6.036       5.781       5.515       5.195       4.875       4.618       4.489       4.410       4.330       4.246    
        4.186       4.116       4.013       3.893       3.728       3.472       3.144       2.880       2.599       2.190    
        1.840       1.592       1.387       1.220       1.027      0.8169      0.5617      0.3359      0.1514       0.000    
  34    10.00       9.776       9.625       9.494       9.334       9.138       8.931       8.705       8.494       8.331    
        8.168       8.005       7.836       7.633       7.448       7.266       7.090       6.926       6.715       6.442    
        6.188       5.955       5.692       5.360       5.009       4.722       4.556       4.462       4.371       4.278    
        4.197       4.121       4.018       3.869       3.667       3.351       3.030       2.787       2.451       2.088    
        1.869       1.705       1.506       1.291       1.037      0.7412      0.4541      0.2691      0.1116       0.000    
  35    10.00       9.813       9.678       9.544       9.374       9.154       8.918       8.668       8.468       8.327    
        8.218       8.055       7.868       7.653       7.456       7.327       7.198       7.029       6.812       6.551    
        6.308       6.078       5.835       5.465       5.069       4.796       4.614       4.504       4.399       4.293    
        4.210       4.119       3.997       3.806       3.495       3.165       2.948       2.690       2.345       2.123    
        1.968       1.781       1.582       1.372       1.049      0.6308      0.3491      0.2297      0.1166       0.000    
  36    10.00       9.836       9.718       9.591       9.411       9.150       8.863       8.628       8.483       8.375    
        8.228       8.043       7.872       7.682       7.509       7.380       7.258       7.110       6.937       6.697    
        6.445       6.201       5.905       5.509       5.119       4.842       4.668       4.540       4.412       4.300    
        4.209       4.093       3.902       3.619       3.335       3.102       2.895       2.625       2.345       2.196    
        2.038       1.870       1.668       1.397      0.9586      0.5320      0.3283      0.2102      0.1081       0.000    
  37    10.00       9.853       9.763       9.626       9.387       9.103       8.850       8.666       8.546       8.416    
        8.227       8.030       7.883       7.719       7.559       7.436       7.325       7.187       7.006       6.798    
        6.592       6.326       5.959       5.586       5.218       4.906       4.699       4.540       4.425       4.303    
        4.184       4.018       3.735       3.474       3.268       3.067       2.850       2.636       2.432       2.265    
        2.113       1.923       1.695       1.339      0.8804      0.5142      0.3083      0.1960      9.8289E-02   0.000    
  38    10.00       9.876       9.766       9.618       9.371       9.078       8.864       8.728       8.604       8.453    
        8.253       8.046       7.901       7.751       7.592       7.470       7.374       7.255       7.078       6.898    
        6.709       6.410       5.995       5.594       5.238       4.935       4.713       4.537       4.421       4.309    
        4.142       3.871       3.616       3.446       3.240       3.038       2.880       2.695       2.509       2.347    
        2.167       1.909       1.619       1.232      0.7760      0.4943      0.3478      0.2167      9.7263E-02   0.000    
  39    10.00       9.875       9.751       9.596       9.358       9.093       8.901       8.780       8.630       8.464    
        8.301       8.093       7.927       7.786       7.633       7.503       7.395       7.281       7.139       6.976    
        6.762       6.447       6.025       5.578       5.213       4.934       4.684       4.506       4.410       4.305    
        4.060       3.770       3.602       3.406       3.213       3.066       2.932       2.763       2.581       2.429    
        2.169       1.803       1.460       1.040      0.6943      0.5363      0.3994      0.2601      0.1338       0.000    
  40    10.00       9.865       9.758       9.599       9.381       9.159       8.972       8.814       8.637       8.484    
        8.363       8.161       7.954       7.811       7.669       7.524       7.406       7.315       7.193       7.005    
        6.763       6.406       5.978       5.562       5.185       4.897       4.622       4.479       4.394       4.256    
        4.033       3.805       3.577       3.372       3.232       3.103       2.975       2.817       2.648       2.448    
        2.097       1.697       1.324      0.9836      0.7458      0.5828      0.4463      0.3151      0.1547       0.000    
  41    10.00       9.884       9.798       9.645       9.421       9.191       9.014       8.873       8.700       8.517    
        8.375       8.194       8.003       7.867       7.704       7.531       7.428       7.332       7.179       6.979    
        6.732       6.387       5.962       5.553       5.178       4.797       4.539       4.458       4.369       4.263    
        4.082       3.809       3.577       3.411       3.270       3.154       3.013       2.860       2.686       2.375    
        1.963       1.572       1.246      0.9946      0.7887      0.6373      0.4912      0.3471      0.1828       0.000    
  42    10.00       9.914       9.819       9.673       9.481       9.264       9.064       8.919       8.764       8.566    
        8.384       8.212       8.052       7.922       7.752       7.567       7.444       7.316       7.151       6.927    
        6.648       6.274       5.905       5.502       5.016       4.672       4.530       4.467       4.388       4.273    
        4.062       3.822       3.603       3.434       3.319       3.194       3.068       2.903       2.626       2.215    
        1.853       1.560       1.277      0.9915      0.7999      0.6713      0.5310      0.3620      0.2009       0.000    
  43    10.00       9.932       9.832       9.683       9.495       9.316       9.139       8.977       8.789       8.587    
        8.420       8.247       8.090       7.970       7.812       7.608       7.447       7.302       7.077       6.792    
        6.519       6.160       5.816       5.360       4.900       4.669       4.555       4.481       4.405       4.284    
        4.083       3.862       3.651       3.483       3.373       3.248       3.084       2.850       2.446       2.080    
        1.853       1.592       1.293      0.9967      0.7934      0.6742      0.5659      0.3921      0.1837       0.000    
  44    10.00       9.925       9.841       9.687       9.517       9.388       9.213       8.996       8.785       8.617    
        8.452       8.281       8.142       8.018       7.837       7.623       7.440       7.267       7.002       6.712    
        6.385       6.024       5.661       5.203       4.854       4.681       4.584       4.518       4.435       4.283    
        4.076       3.899       3.711       3.555       3.442       3.276       3.058       2.722       2.308       2.063    
        1.856       1.583       1.285       1.013      0.8051      0.6773      0.5670      0.3846      0.1695       0.000    
  45    10.00       9.911       9.809       9.687       9.564       9.401       9.220       9.016       8.806       8.639    
        8.470       8.317       8.195       8.055       7.860       7.633       7.427       7.230       6.943       6.601    
        6.223       5.839       5.446       5.106       4.863       4.715       4.620       4.551       4.448       4.323    
        4.143       3.941       3.774       3.615       3.457       3.280       3.040       2.681       2.320       2.034    
        1.795       1.538       1.258       1.014      0.8320      0.7254      0.5604      0.3337      0.1521       0.000    
  46    10.00       9.893       9.788       9.691       9.554       9.370       9.195       9.030       8.825       8.648    
        8.499       8.355       8.234       8.071       7.864       7.662       7.443       7.186       6.874       6.501    
        6.055       5.671       5.355       5.094       4.909       4.778       4.662       4.570       4.489       4.349    
        4.160       3.985       3.822       3.641       3.484       3.313       3.043       2.628       2.247       1.992    
        1.766       1.518       1.253       1.039      0.8969      0.7597      0.5093      0.2503      0.1088       0.000    
  47    10.00       9.887       9.781       9.648       9.489       9.339       9.189       9.011       8.825       8.667    
        8.531       8.403       8.236       8.059       7.874       7.678       7.442       7.141       6.848       6.395    
        5.907       5.605       5.332       5.127       4.955       4.827       4.713       4.601       4.506       4.362    
        4.164       3.992       3.829       3.658       3.520       3.314       2.940       2.566       2.247       1.973    
        1.775       1.540       1.303       1.096      0.9200      0.6985      0.4201      0.2196      9.1434E-02   0.000    
  48    10.00       9.874       9.748       9.607       9.463       9.330       9.178       9.015       8.843       8.688    
        8.551       8.402       8.221       8.039       7.858       7.666       7.441       7.157       6.792       6.341    
        5.917       5.607       5.340       5.152       5.012       4.857       4.741       4.647       4.530       4.336    
        4.142       3.975       3.825       3.697       3.516       3.245       2.888       2.550       2.246       2.004    
        1.790       1.566       1.353       1.118      0.8550      0.5689      0.3598      0.2134      9.6403E-02   0.000    
  49    10.00       9.863       9.726       9.587       9.470       9.332       9.172       9.012       8.873       8.713    
        8.548       8.363       8.185       8.033       7.827       7.640       7.453       7.136       6.775       6.415    
        5.968       5.621       5.356       5.191       5.028       4.861       4.771       4.683       4.498       4.264    
        4.098       3.963       3.853       3.689       3.479       3.236       2.877       2.539       2.301       2.044    
        1.792       1.585       1.358       1.081      0.7582      0.5079      0.3602      0.2325      0.1192       0.000    
  50    10.00       9.868       9.731       9.590       9.462       9.327       9.184       9.027       8.881       8.738    
        8.537       8.344       8.181       7.976       7.768       7.624       7.447       7.201       6.843       6.487    
        6.032       5.596       5.365       5.198       5.028       4.892       4.785       4.668       4.449       4.226    
        4.088       3.977       3.849       3.678       3.484       3.252       2.888       2.541       2.309       2.078    
        1.838       1.578       1.323       1.026      0.7072      0.5199      0.3876      0.2627      0.1585       0.000    

 HEAD WILL BE SAVED ON UNIT   51 AT END OF TIME STEP  87, STRESS PERIOD    2

 DRAWDOWN WILL BE SAVED ON UNIT   52 AT END OF TIME STEP  87, STRESS PERIOD    2
1
  VOLUMETRIC BUDGET FOR ENTIRE MODEL AT END OF TIME STEP 87 IN STRESS PERIOD   2
  ------------------------------------------------------------------------------

     CUMULATIVE VOLUMES      L**3       RATES FOR THIS TIME STEP      L**3/T
     ------------------                 ------------------------

           IN:                                      IN:
           ---                                      ---
             STORAGE =       41760.1484               STORAGE =         435.1071
       CONSTANT HEAD =       34274.8945         CONSTANT HEAD =         425.5647
               WELLS =           0.0000                 WELLS =           0.0000

            TOTAL IN =       76035.0469              TOTAL IN =         860.6718

          OUT:                                     OUT:
          ----                                     ----
             STORAGE =       1.1143E-02               STORAGE =           0.0000
       CONSTANT HEAD =       32535.0195         CONSTANT HEAD =         360.6720
               WELLS =       43500.0000                 WELLS =         500.0000

           TOTAL OUT =       76035.0312             TOTAL OUT =         860.6720

            IN - OUT =       1.5625E-02              IN - OUT =      -2.4414E-04

 PERCENT DISCREPANCY =           0.00     PERCENT DISCREPANCY =           0.00






          TIME SUMMARY AT END OF TIME STEP  87 IN STRESS PERIOD    2
                    SECONDS     MINUTES      HOURS       DAYS        YEARS
                    -----------------------------------------------------------
   TIME STEP LENGTH  86400.      1440.0      24.000      1.0000     2.73785E-03
 STRESS PERIOD TIME 7.51680E+06 1.25280E+05  2088.0      87.000     0.23819    
         TOTAL TIME 7.60320E+06 1.26720E+05  2112.0      88.000     0.24093    
1
 
 SOLVING FOR HEAD 

 OUTPUT CONTROL FOR STRESS PERIOD    2   TIME STEP  88
    SAVE HEAD FOR ALL LAYERS
    SAVE DRAWDOWN FOR ALL LAYERS
    SAVE BUDGET
    PRINT HEAD FOR ALL LAYERS
    PRINT BUDGET
 UBDSV1 SAVING "         STORAGE" ON UNIT  53 AT TIME STEP 88, STRESS PERIOD   2
 UBDSV2 SAVING "   CONSTANT HEAD" ON UNIT  53 AT TIME STEP 88, STRESS PERIOD   2
 UBDSV1 SAVING "FLOW RIGHT FACE " ON UNIT  53 AT TIME STEP 88, STRESS PERIOD   2
 UBDSV1 SAVING "FLOW FRONT FACE " ON UNIT  53 AT TIME STEP 88, STRESS PERIOD   2
1
              HEAD IN LAYER   1 AT END OF TIME STEP  88 IN STRESS PERIOD    2
  ---------------------------------------------------------------------------

            1           2           3           4           5           6           7           8           9          10
           11          12          13          14          15          16          17          18          19          20
           21          22          23          24          25          26          27          28          29          30
           31          32          33          34          35          36          37          38          39          40
           41          42          43          44          45          46          47          48          49          50
 ........................................................................................................................
   1    10.00       9.949       9.899       9.839       9.792       9.753       9.700       9.627       9.547       9.474    
        9.313       9.111       8.962       8.796       8.620       8.442       8.277       8.088       7.835       7.583    
        7.412       7.216       6.959       6.699       6.466       6.265       5.978       5.718       5.534       5.343    
        5.180       5.076       4.966       4.842       4.723       4.576       4.417       4.204       3.959       3.690    
        3.343       2.988       2.520       2.007       1.620       1.341       1.132      0.8929      0.5243       0.000    
   2    10.00       9.944       9.890       9.839       9.800       9.761       9.702       9.628       9.555       9.456    
        9.298       9.118       8.950       8.799       8.636       8.452       8.256       8.060       7.825       7.571    
        7.384       7.224       6.949       6.667       6.460       6.232       5.955       5.707       5.495       5.314    
        5.178       5.083       4.990       4.858       4.718       4.572       4.390       4.191       3.953       3.647    
        3.322       3.021       2.530       2.021       1.678       1.430       1.189      0.9223      0.5570       0.000    
   3    10.00       9.935       9.889       9.854       9.816       9.777       9.713       9.625       9.536       9.428    
        9.285       9.124       8.963       8.810       8.616       8.384       8.192       8.024       7.807       7.584    
        7.393       7.163       6.891       6.642       6.417       6.161       5.894       5.648       5.431       5.298    
        5.188       5.098       5.006       4.860       4.713       4.556       4.376       4.153       3.887       3.653    
        3.367       2.956       2.477       2.112       1.822       1.534       1.238      0.9348      0.5281       0.000    
   4    10.00       9.935       9.895       9.863       9.837       9.794       9.722       9.619       9.514       9.406    
        9.269       9.125       8.963       8.771       8.531       8.316       8.179       7.989       7.778       7.605    
        7.341       7.047       6.808       6.587       6.369       6.062       5.765       5.569       5.424       5.312    
        5.214       5.119       5.018       4.848       4.666       4.524       4.333       4.102       3.877       3.673    
        3.347       2.894       2.534       2.228       1.916       1.590       1.234      0.8797      0.4511       0.000    
   5    10.00       9.940       9.903       9.872       9.848       9.804       9.727       9.610       9.492       9.384    
        9.267       9.119       8.910       8.684       8.481       8.311       8.139       7.961       7.764       7.518    
        7.210       6.968       6.769       6.545       6.264       5.944       5.702       5.564       5.446       5.331    
        5.218       5.103       4.986       4.820       4.635       4.463       4.292       4.112       3.909       3.640    
        3.271       2.927       2.620       2.313       1.973       1.593       1.147      0.7400      0.3833       0.000    
   6    10.00       9.950       9.914       9.883       9.850       9.802       9.720       9.593       9.490       9.374    
        9.243       9.058       8.828       8.640       8.452       8.257       8.081       7.922       7.701       7.419    
        7.146       6.915       6.711       6.432       6.127       5.887       5.692       5.564       5.430       5.311    
        5.211       5.085       4.939       4.768       4.588       4.441       4.295       4.132       3.918       3.629    
        3.309       2.978       2.665       2.354       1.986       1.527       1.047      0.6951      0.3581       0.000    
   7    10.00       9.957       9.925       9.893       9.857       9.799       9.688       9.565       9.458       9.314    
        9.179       8.980       8.771       8.577       8.383       8.184       8.012       7.865       7.609       7.309    
        7.061       6.825       6.598       6.328       6.070       5.852       5.682       5.525       5.380       5.291    
        5.189       5.047       4.893       4.724       4.570       4.440       4.304       4.138       3.921       3.660    
        3.343       3.003       2.680       2.337       1.974       1.493       1.000      0.6614      0.3132       0.000    
   8    10.00       9.964       9.935       9.900       9.859       9.765       9.628       9.512       9.377       9.240    
        9.089       8.885       8.706       8.507       8.290       8.093       7.944       7.768       7.524       7.232    
        6.944       6.728       6.538       6.260       5.990       5.796       5.603       5.432       5.336       5.247    
        5.124       4.983       4.854       4.708       4.552       4.419       4.315       4.191       3.982       3.684    
        3.337       3.036       2.735       2.338       1.934       1.396      0.9262      0.6474      0.2997       0.000    
   9    10.00       9.971       9.939       9.899       9.829       9.704       9.559       9.421       9.302       9.161    
        8.982       8.801       8.622       8.430       8.204       8.021       7.880       7.669       7.428       7.128    
        6.879       6.664       6.392       6.104       5.876       5.703       5.511       5.371       5.278       5.176    
        5.064       4.939       4.817       4.690       4.556       4.434       4.334       4.224       4.008       3.685    
        3.368       3.103       2.787       2.406       1.809       1.202      0.8819      0.5470      0.2087       0.000    
  10    10.00       9.971       9.937       9.881       9.773       9.624       9.461       9.355       9.242       9.073    
        8.917       8.737       8.558       8.349       8.139       7.974       7.782       7.565       7.309       7.066    
        6.821       6.485       6.205       5.979       5.787       5.630       5.453       5.313       5.219       5.138    
        5.022       4.887       4.778       4.662       4.545       4.464       4.365       4.238       3.990       3.672    
        3.426       3.194       2.833       2.258       1.567       1.127      0.7994      0.4883      0.2437       0.000    
  11    10.00       9.971       9.926       9.837       9.716       9.548       9.404       9.314       9.179       9.035    
        8.885       8.695       8.480       8.255       8.079       7.899       7.719       7.484       7.235       6.996    
        6.640       6.318       6.096       5.895       5.709       5.534       5.365       5.257       5.182       5.100    
        4.966       4.841       4.754       4.652       4.560       4.469       4.357       4.219       3.987       3.734    
        3.477       3.175       2.781       2.147       1.501       1.058      0.7483      0.5680      0.3139       0.000    
  12    10.00       9.969       9.905       9.791       9.631       9.464       9.349       9.259       9.140       9.010    
        8.845       8.642       8.426       8.228       8.047       7.849       7.641       7.399       7.145       6.816    
        6.465       6.222       6.003       5.797       5.591       5.418       5.302       5.223       5.125       5.016    
        4.896       4.808       4.732       4.653       4.574       4.483       4.365       4.200       3.986       3.760    
        3.484       3.156       2.617       1.903       1.353       1.041      0.8300      0.6024      0.3436       0.000    
  13    10.00       9.958       9.859       9.702       9.535       9.391       9.298       9.218       9.117       8.991    
        8.815       8.604       8.405       8.246       8.037       7.792       7.549       7.287       7.003       6.680    
        6.373       6.109       5.872       5.657       5.459       5.335       5.265       5.149       5.022       4.924    
        4.850       4.783       4.716       4.652       4.575       4.496       4.391       4.203       3.987       3.720    
        3.402       2.986       2.360       1.782       1.383       1.119      0.8721      0.6036      0.2984       0.000    
  14    10.00       9.923       9.781       9.607       9.452       9.338       9.276       9.202       9.105       8.965    
        8.772       8.590       8.427       8.261       8.022       7.733       7.471       7.173       6.858       6.523    
        6.225       5.961       5.727       5.516       5.364       5.278       5.190       5.048       4.941       4.870    
        4.819       4.755       4.700       4.640       4.572       4.510       4.385       4.192       3.965       3.631    
        3.258       2.767       2.286       1.866       1.470       1.161      0.8872      0.6040      0.2692       0.000    
  15    10.00       9.856       9.697       9.541       9.417       9.329       9.260       9.191       9.094       8.963    
        8.791       8.614       8.453       8.215       7.933       7.655       7.364       7.057       6.681       6.325    
        6.049       5.794       5.575       5.417       5.303       5.214       5.103       4.972       4.885       4.836    
        4.776       4.725       4.684       4.627       4.565       4.497       4.363       4.182       3.894       3.534    
        3.149       2.711       2.323       1.891       1.559       1.229      0.8983      0.5984      0.2457       0.000    
  16    10.00       9.832       9.659       9.517       9.409       9.329       9.258       9.194       9.099       8.963    
        8.801       8.631       8.429       8.125       7.815       7.584       7.297       6.885       6.457       6.129    
        5.847       5.636       5.458       5.324       5.198       5.119       4.996       4.890       4.827       4.770    
        4.728       4.698       4.655       4.602       4.546       4.467       4.344       4.124       3.811       3.488    
        3.161       2.742       2.308       1.929       1.616       1.270      0.8961      0.5367      0.2022       0.000    
  17    10.00       9.809       9.636       9.521       9.425       9.344       9.274       9.201       9.098       8.971    
        8.818       8.603       8.325       7.997       7.737       7.517       7.164       6.698       6.267       5.952    
        5.728       5.493       5.296       5.152       5.049       4.947       4.841       4.777       4.727       4.700    
        4.688       4.660       4.617       4.565       4.505       4.420       4.275       4.083       3.834       3.499    
        3.128       2.688       2.288       1.954       1.634       1.279      0.9152      0.5593      0.2367       0.000    
  18    10.00       9.798       9.635       9.535       9.448       9.370       9.301       9.212       9.111       8.974    
        8.790       8.534       8.225       7.947       7.692       7.368       6.958       6.534       6.154       5.845    
        5.569       5.268       5.099       4.979       4.890       4.773       4.706       4.651       4.620       4.632    
        4.631       4.608       4.564       4.507       4.446       4.356       4.220       4.067       3.852       3.545    
        3.067       2.599       2.274       1.956       1.685       1.313      0.9112      0.5493      0.2368       0.000    
  19    10.00       9.807       9.670       9.568       9.476       9.397       9.314       9.232       9.138       8.979    
        8.763       8.489       8.183       7.874       7.535       7.184       6.805       6.397       6.015       5.688    
        5.367       5.107       4.973       4.882       4.754       4.651       4.594       4.544       4.537       4.544    
        4.555       4.544       4.492       4.442       4.394       4.327       4.201       4.035       3.820       3.460    
        2.979       2.584       2.260       1.949       1.645       1.260      0.8764      0.5465      0.2578       0.000    
  20    10.00       9.817       9.701       9.611       9.522       9.428       9.330       9.242       9.147       8.985    
        8.749       8.464       8.108       7.705       7.317       7.032       6.651       6.215       5.881       5.557    
        5.272       5.057       4.894       4.755       4.591       4.519       4.483       4.459       4.465       4.467    
        4.475       4.456       4.416       4.391       4.355       4.290       4.145       3.979       3.734       3.331    
        2.918       2.604       2.232       1.876       1.544       1.165      0.8793      0.5431      0.2411       0.000    
  21    10.00       9.844       9.739       9.648       9.550       9.461       9.353       9.257       9.153       8.970    
        8.715       8.365       7.919       7.450       7.092       6.832       6.477       6.159       5.846       5.496    
        5.226       4.988       4.784       4.518       4.383       4.347       4.290       4.331       4.367       4.365    
        4.362       4.337       4.338       4.329       4.304       4.217       4.077       3.936       3.580       3.162    
        2.855       2.515       2.134       1.802       1.450       1.118      0.7963      0.4784      0.2405       0.000    
  22    10.00       9.877       9.767       9.668       9.574       9.489       9.366       9.241       9.120       8.931    
        8.617       8.177       7.675       7.237       6.931       6.662       6.392       6.163       5.819       5.475    
        5.191       4.850       4.483       4.207       4.105       4.005       4.019       4.126       4.165       4.185    
        4.204       4.204       4.235       4.260       4.237       4.151       4.017       3.753       3.349       3.082    
        2.752       2.386       2.043       1.724       1.423       1.029      0.6910      0.4585      0.2579       0.000    
  23    10.00       9.879       9.773       9.683       9.583       9.471       9.332       9.218       9.112       8.872    
        8.488       8.015       7.559       7.177       6.864       6.637       6.383       6.083       5.754       5.480    
        5.084       4.585       4.192       3.912       3.499       3.498       3.718       3.839       3.927       4.014    
        4.053       4.088       4.130       4.168       4.149       4.065       3.869       3.569       3.245       2.917    
        2.600       2.297       1.967       1.716       1.336      0.9352      0.6718      0.4407      0.2290       0.000    
  24    10.00       9.905       9.785       9.668       9.552       9.423       9.297       9.200       9.081       8.798    
        8.361       7.915       7.537       7.204       6.904       6.606       6.296       6.024       5.763       5.443    
        4.970       4.475       4.009       3.160       2.256       2.780       3.283       3.576       3.741       3.877    
        3.952       4.001       4.050       4.068       4.047       3.936       3.719       3.476       3.122       2.776    
        2.529       2.238       1.926       1.604       1.196      0.8673      0.6457      0.4125      0.1821       0.000    
  25    10.00       9.897       9.758       9.614       9.478       9.361       9.265       9.167       9.020       8.727    
        8.268       7.853       7.563       7.252       6.904       6.596       6.306       6.067       5.825       5.411    
        4.870       4.384       3.638       2.262     -0.6070       2.156       2.952       3.417       3.662       3.804    
        3.891       3.949       3.990       3.996       3.961       3.835       3.604       3.319       3.031       2.741    
        2.461       2.147       1.791       1.451       1.063      0.7954      0.6420      0.4003      0.1485       0.000    
  26    10.00       9.871       9.692       9.530       9.421       9.326       9.231       9.111       8.938       8.576    
        8.150       7.860       7.581       7.271       6.946       6.649       6.375       6.137       5.832       5.391    
        4.916       4.379       3.725       2.979       2.295       2.652       3.125       3.452       3.652       3.783    
        3.864       3.924       3.950       3.944       3.888       3.733       3.472       3.242       3.013       2.701    
        2.412       2.055       1.648       1.282      0.9655      0.7771      0.6062      0.3559      0.1515       0.000    
  27    10.00       9.842       9.652       9.501       9.409       9.285       9.160       9.008       8.776       8.435    
        8.134       7.877       7.594       7.291       6.972       6.736       6.545       6.223       5.837       5.388    
        4.985       4.594       4.066       3.573       3.183       3.239       3.418       3.578       3.705       3.798    
        3.883       3.932       3.940       3.913       3.833       3.652       3.444       3.242       2.974       2.681    
        2.382       1.952       1.485       1.141      0.9206      0.7635      0.5756      0.3757      0.1813       0.000    
  28    10.00       9.821       9.682       9.513       9.356       9.205       9.067       8.888       8.657       8.392    
        8.144       7.915       7.634       7.296       7.012       6.820       6.608       6.254       5.807       5.411    
        5.123       4.830       4.412       4.026       3.776       3.691       3.682       3.731       3.811       3.889    
        3.944       3.956       3.947       3.898       3.789       3.625       3.457       3.217       2.937       2.641    
        2.274       1.868       1.405       1.064      0.9101      0.7598      0.5929      0.3921      0.1819       0.000    
  29    10.00       9.828       9.654       9.475       9.288       9.142       8.986       8.787       8.592       8.382    
        8.161       7.934       7.661       7.375       7.130       6.903       6.620       6.229       5.821       5.512    
        5.265       5.006       4.662       4.316       4.111       3.999       3.928       3.925       3.965       3.991    
        3.994       3.989       3.960       3.890       3.763       3.619       3.460       3.235       2.924       2.548    
        2.212       1.780       1.317       1.049      0.9129      0.7649      0.5882      0.3828      0.1905       0.000    
  30    10.00       9.803       9.628       9.414       9.223       9.089       8.923       8.748       8.597       8.409    
        8.183       7.937       7.689       7.461       7.243       6.987       6.627       6.263       5.935       5.638    
        5.425       5.168       4.853       4.552       4.305       4.206       4.141       4.117       4.094       4.072    
        4.047       4.023       3.974       3.880       3.761       3.644       3.484       3.194       2.809       2.421    
        2.077       1.679       1.325       1.077      0.9337      0.7666      0.5777      0.4011      0.1969       0.000    
  31    10.00       9.777       9.575       9.370       9.199       9.059       8.902       8.747       8.598       8.415    
        8.192       7.946       7.732       7.543       7.338       7.051       6.696       6.377       6.117       5.852    
        5.623       5.331       5.020       4.766       4.515       4.356       4.292       4.230       4.184       4.137    
        4.103       4.054       3.984       3.890       3.772       3.640       3.386       3.061       2.737       2.356    
        2.030       1.632       1.286       1.105      0.9510      0.7936      0.5969      0.4015      0.1904       0.000    
  32    10.00       9.760       9.544       9.368       9.224       9.084       8.920       8.744       8.564       8.392    
        8.173       7.960       7.770       7.562       7.374       7.130       6.853       6.612       6.342       6.067    
        5.836       5.563       5.248       4.974       4.714       4.487       4.402       4.321       4.256       4.190    
        4.142       4.092       3.998       3.877       3.764       3.580       3.264       2.955       2.668       2.319    
        1.938       1.564       1.308       1.168      0.9993      0.8003      0.5923      0.3813      0.1903       0.000    
  33    10.00       9.753       9.568       9.427       9.283       9.122       8.925       8.730       8.538       8.341    
        8.160       7.981       7.793       7.596       7.386       7.197       6.994       6.788       6.566       6.297    
        6.028       5.772       5.506       5.185       4.865       4.608       4.480       4.400       4.320       4.237    
        4.176       4.106       4.004       3.884       3.720       3.464       3.138       2.874       2.594       2.186    
        1.837       1.590       1.385       1.218       1.025      0.8158      0.5610      0.3355      0.1512       0.000    
  34    10.00       9.775       9.624       9.492       9.332       9.136       8.928       8.702       8.490       8.326    
        8.163       8.000       7.831       7.627       7.442       7.260       7.084       6.919       6.707       6.434    
        6.180       5.946       5.683       5.351       5.000       4.713       4.546       4.453       4.362       4.269    
        4.187       4.113       4.009       3.860       3.659       3.345       3.024       2.782       2.447       2.085    
        1.867       1.702       1.504       1.290       1.036      0.7402      0.4535      0.2688      0.1115       0.000    
  35    10.00       9.813       9.677       9.543       9.373       9.152       8.915       8.665       8.464       8.323    
        8.214       8.050       7.863       7.647       7.450       7.320       7.191       7.023       6.804       6.543    
        6.300       6.069       5.827       5.456       5.060       4.787       4.605       4.495       4.390       4.284    
        4.201       4.111       3.989       3.798       3.489       3.159       2.943       2.686       2.341       2.120    
        1.966       1.779       1.580       1.370       1.048      0.6300      0.3487      0.2294      0.1165       0.000    
  36    10.00       9.835       9.717       9.590       9.409       9.148       8.860       8.624       8.480       8.371    
        8.223       8.038       7.867       7.677       7.503       7.374       7.252       7.103       6.931       6.690    
        6.437       6.193       5.896       5.500       5.110       4.833       4.659       4.531       4.403       4.292    
        4.201       4.085       3.894       3.612       3.329       3.097       2.890       2.621       2.342       2.193    
        2.036       1.868       1.666       1.396      0.9574      0.5313      0.3279      0.2100      0.1079       0.000    
  37    10.00       9.853       9.762       9.625       9.386       9.101       8.847       8.663       8.543       8.412    
        8.222       8.025       7.878       7.714       7.553       7.430       7.318       7.180       6.999       6.791    
        6.585       6.319       5.951       5.578       5.209       4.897       4.691       4.532       4.417       4.295    
        4.176       4.011       3.729       3.468       3.264       3.062       2.846       2.632       2.429       2.262    
        2.110       1.921       1.693       1.337      0.8794      0.5136      0.3079      0.1957      9.8178E-02   0.000    
  38    10.00       9.875       9.766       9.617       9.369       9.076       8.862       8.725       8.601       8.449    
        8.248       8.041       7.896       7.746       7.586       7.464       7.368       7.248       7.072       6.892    
        6.702       6.402       5.988       5.587       5.230       4.928       4.705       4.530       4.414       4.302    
        4.135       3.865       3.611       3.441       3.236       3.034       2.876       2.692       2.506       2.344    
        2.164       1.907       1.617       1.230      0.7751      0.4938      0.3475      0.2165      9.7161E-02   0.000    
  39    10.00       9.874       9.751       9.595       9.356       9.091       8.898       8.777       8.627       8.460    
        8.297       8.088       7.922       7.781       7.627       7.497       7.390       7.275       7.133       6.970    
        6.755       6.440       6.018       5.571       5.206       4.927       4.678       4.500       4.403       4.299    
        4.054       3.764       3.597       3.402       3.209       3.062       2.928       2.760       2.578       2.426    
        2.166       1.801       1.458       1.039      0.6936      0.5357      0.3990      0.2598      0.1337       0.000    
  40    10.00       9.865       9.757       9.598       9.380       9.157       8.970       8.811       8.634       8.481    
        8.359       8.157       7.950       7.806       7.664       7.519       7.401       7.309       7.187       6.999    
        6.757       6.399       5.972       5.555       5.179       4.891       4.616       4.474       4.389       4.250    
        4.028       3.800       3.573       3.368       3.229       3.099       2.971       2.814       2.645       2.445    
        2.094       1.695       1.323      0.9826      0.7450      0.5823      0.4459      0.3148      0.1546       0.000    
  41    10.00       9.884       9.798       9.644       9.420       9.190       9.012       8.870       8.697       8.514    
        8.371       8.190       7.999       7.863       7.699       7.526       7.422       7.326       7.173       6.973    
        6.726       6.381       5.956       5.547       5.172       4.792       4.534       4.454       4.364       4.259    
        4.078       3.804       3.573       3.407       3.266       3.150       3.009       2.857       2.682       2.373    
        1.960       1.570       1.245      0.9937      0.7879      0.6367      0.4908      0.3468      0.1827       0.000    
  42    10.00       9.913       9.819       9.672       9.480       9.262       9.062       8.917       8.761       8.563    
        8.381       8.208       8.048       7.918       7.747       7.562       7.439       7.311       7.146       6.922    
        6.643       6.269       5.900       5.497       5.011       4.668       4.526       4.462       4.384       4.268    
        4.057       3.818       3.599       3.430       3.316       3.191       3.065       2.900       2.624       2.213    
        1.852       1.559       1.275      0.9906      0.7992      0.6707      0.5305      0.3617      0.2007       0.000    
  43    10.00       9.932       9.831       9.682       9.494       9.314       9.137       8.975       8.787       8.585    
        8.417       8.244       8.086       7.966       7.808       7.603       7.443       7.297       7.072       6.787    
        6.514       6.156       5.812       5.356       4.896       4.665       4.550       4.477       4.401       4.280    
        4.079       3.858       3.647       3.480       3.369       3.245       3.081       2.847       2.444       2.078    
        1.851       1.591       1.292      0.9958      0.7928      0.6737      0.5654      0.3918      0.1836       0.000    
  44    10.00       9.925       9.840       9.686       9.516       9.387       9.211       8.994       8.783       8.615    
        8.449       8.278       8.139       8.014       7.833       7.619       7.436       7.263       6.998       6.708    
        6.381       6.020       5.657       5.199       4.851       4.677       4.580       4.514       4.431       4.279    
        4.072       3.895       3.708       3.552       3.438       3.272       3.055       2.719       2.306       2.062    
        1.854       1.582       1.284       1.013      0.8045      0.6768      0.5666      0.3843      0.1693       0.000    
  45    10.00       9.910       9.809       9.686       9.563       9.400       9.218       9.014       8.804       8.637    
        8.468       8.314       8.192       8.052       7.857       7.630       7.424       7.227       6.940       6.597    
        6.220       5.835       5.443       5.103       4.859       4.711       4.616       4.548       4.445       4.320    
        4.140       3.938       3.770       3.611       3.453       3.277       3.038       2.678       2.318       2.032    
        1.794       1.537       1.257       1.014      0.8314      0.7249      0.5600      0.3334      0.1520       0.000    
  46    10.00       9.893       9.788       9.690       9.553       9.369       9.194       9.029       8.823       8.646    
        8.497       8.353       8.232       8.068       7.861       7.659       7.440       7.182       6.871       6.498    
        6.052       5.668       5.352       5.091       4.905       4.775       4.659       4.567       4.485       4.345    
        4.156       3.982       3.819       3.638       3.481       3.310       3.040       2.626       2.245       1.990    
        1.765       1.517       1.253       1.038      0.8963      0.7592      0.5089      0.2502      0.1088       0.000    
  47    10.00       9.886       9.781       9.647       9.489       9.338       9.188       9.010       8.823       8.665    
        8.529       8.401       8.233       8.057       7.871       7.676       7.440       7.138       6.845       6.392    
        5.904       5.602       5.329       5.124       4.951       4.824       4.710       4.597       4.502       4.359    
        4.161       3.989       3.826       3.655       3.517       3.312       2.938       2.564       2.245       1.972    
        1.774       1.539       1.303       1.095      0.9194      0.6981      0.4198      0.2194      9.1376E-02   0.000    
  48    10.00       9.874       9.748       9.606       9.462       9.329       9.177       9.014       8.842       8.687    
        8.549       8.401       8.219       8.037       7.856       7.663       7.438       7.155       6.789       6.338    
        5.914       5.604       5.337       5.149       5.009       4.854       4.738       4.644       4.526       4.333    
        4.139       3.972       3.822       3.694       3.514       3.243       2.886       2.548       2.245       2.003    
        1.789       1.565       1.353       1.117      0.8545      0.5686      0.3595      0.2133      9.6348E-02   0.000    
  49    10.00       9.863       9.726       9.587       9.469       9.331       9.171       9.011       8.872       8.711    
        8.547       8.362       8.183       8.031       7.825       7.638       7.451       7.134       6.772       6.412    
        5.965       5.618       5.353       5.188       5.025       4.858       4.768       4.680       4.495       4.261    
        4.095       3.960       3.851       3.686       3.477       3.234       2.875       2.537       2.299       2.042    
        1.790       1.584       1.357       1.081      0.7578      0.5076      0.3600      0.2323      0.1192       0.000    
  50    10.00       9.868       9.731       9.590       9.462       9.326       9.183       9.026       8.880       8.737    
        8.535       8.342       8.179       7.974       7.765       7.622       7.444       7.199       6.841       6.485    
        6.029       5.593       5.362       5.195       5.025       4.889       4.782       4.665       4.446       4.223    
        4.085       3.974       3.846       3.676       3.482       3.250       2.886       2.539       2.308       2.077    
        1.837       1.577       1.322       1.025      0.7068      0.5196      0.3874      0.2626      0.1584       0.000    

 HEAD WILL BE SAVED ON UNIT   51 AT END OF TIME STEP  88, STRESS PERIOD    2

 DRAWDOWN WILL BE SAVED ON UNIT   52 AT END OF TIME STEP  88, STRESS PERIOD    2
1
  VOLUMETRIC BUDGET FOR ENTIRE MODEL AT END OF TIME STEP 88 IN STRESS PERIOD   2
  ------------------------------------------------------------------------------

     CUMULATIVE VOLUMES      L**3       RATES FOR THIS TIME STEP      L**3/T
     ------------------                 ------------------------

           IN:                                      IN:
           ---                                      ---
             STORAGE =       42193.8438               STORAGE =         433.6971
       CONSTANT HEAD =       34701.4844         CONSTANT HEAD =         426.5893
               WELLS =           0.0000                 WELLS =           0.0000

            TOTAL IN =       76895.3281              TOTAL IN =         860.2864

          OUT:                                     OUT:
          ----                                     ----
             STORAGE =       1.1143E-02               STORAGE =           0.0000
       CONSTANT HEAD =       32895.3047         CONSTANT HEAD =         360.2865
               WELLS =       44000.0000                 WELLS =         500.0000

           TOTAL OUT =       76895.3125             TOTAL OUT =         860.2865

            IN - OUT =       1.5625E-02              IN - OUT =      -1.2207E-04

 PERCENT DISCREPANCY =           0.00     PERCENT DISCREPANCY =           0.00






          TIME SUMMARY AT END OF TIME STEP  88 IN STRESS PERIOD    2
                    SECONDS     MINUTES      HOURS       DAYS        YEARS
                    -----------------------------------------------------------
   TIME STEP LENGTH  86400.      1440.0      24.000      1.0000     2.73785E-03
 STRESS PERIOD TIME 7.60320E+06 1.26720E+05  2112.0      88.000     0.24093    
         TOTAL TIME 7.68960E+06 1.28160E+05  2136.0      89.000     0.24367    
1
 
 SOLVING FOR HEAD 

 OUTPUT CONTROL FOR STRESS PERIOD    2   TIME STEP  89
    SAVE HEAD FOR ALL LAYERS
    SAVE DRAWDOWN FOR ALL LAYERS
    SAVE BUDGET
    PRINT HEAD FOR ALL LAYERS
    PRINT BUDGET
 UBDSV1 SAVING "         STORAGE" ON UNIT  53 AT TIME STEP 89, STRESS PERIOD   2
 UBDSV2 SAVING "   CONSTANT HEAD" ON UNIT  53 AT TIME STEP 89, STRESS PERIOD   2
 UBDSV1 SAVING "FLOW RIGHT FACE " ON UNIT  53 AT TIME STEP 89, STRESS PERIOD   2
 UBDSV1 SAVING "FLOW FRONT FACE " ON UNIT  53 AT TIME STEP 89, STRESS PERIOD   2
1
              HEAD IN LAYER   1 AT END OF TIME STEP  89 IN STRESS PERIOD    2
  ---------------------------------------------------------------------------

            1           2           3           4           5           6           7           8           9          10
           11          12          13          14          15          16          17          18          19          20
           21          22          23          24          25          26          27          28          29          30
           31          32          33          34          35          36          37          38          39          40
           41          42          43          44          45          46          47          48          49          50
 ........................................................................................................................
   1    10.00       9.949       9.898       9.839       9.792       9.752       9.699       9.626       9.546       9.473    
        9.312       9.109       8.960       8.794       8.618       8.439       8.274       8.084       7.831       7.580    
        7.408       7.212       6.955       6.694       6.461       6.260       5.973       5.712       5.528       5.337    
        5.174       5.070       4.960       4.836       4.717       4.570       4.412       4.199       3.954       3.686    
        3.339       2.985       2.518       2.005       1.618       1.339       1.131      0.8921      0.5238       0.000    
   2    10.00       9.944       9.889       9.839       9.799       9.761       9.702       9.627       9.554       9.455    
        9.297       9.116       8.948       8.797       8.634       8.449       8.253       8.057       7.821       7.567    
        7.380       7.220       6.944       6.662       6.455       6.227       5.949       5.701       5.489       5.309    
        5.172       5.077       4.984       4.852       4.713       4.567       4.385       4.186       3.949       3.643    
        3.318       3.017       2.527       2.019       1.676       1.428       1.188      0.9214      0.5565       0.000    
   3    10.00       9.935       9.889       9.854       9.816       9.776       9.713       9.624       9.535       9.427    
        9.283       9.123       8.961       8.808       8.613       8.382       8.189       8.021       7.803       7.580    
        7.389       7.159       6.886       6.637       6.412       6.156       5.888       5.642       5.425       5.292    
        5.183       5.092       5.000       4.854       4.707       4.551       4.371       4.148       3.883       3.649    
        3.363       2.953       2.474       2.110       1.820       1.532       1.237      0.9339      0.5276       0.000    
   4    10.00       9.935       9.894       9.863       9.836       9.794       9.721       9.618       9.513       9.405    
        9.268       9.124       8.961       8.768       8.528       8.313       8.175       7.985       7.775       7.601    
        7.336       7.043       6.803       6.582       6.364       6.056       5.760       5.562       5.418       5.306    
        5.208       5.113       5.012       4.842       4.661       4.519       4.328       4.097       3.872       3.668    
        3.343       2.891       2.531       2.226       1.914       1.588       1.233      0.8788      0.4507       0.000    
   5    10.00       9.940       9.903       9.871       9.848       9.804       9.726       9.609       9.491       9.383    
        9.266       9.117       8.908       8.682       8.478       8.308       8.136       7.957       7.761       7.513    
        7.205       6.963       6.764       6.540       6.258       5.938       5.696       5.558       5.439       5.325    
        5.212       5.097       4.980       4.814       4.629       4.458       4.287       4.107       3.904       3.636    
        3.267       2.924       2.618       2.310       1.971       1.591       1.146      0.7393      0.3830       0.000    
   6    10.00       9.950       9.914       9.883       9.850       9.802       9.719       9.592       9.489       9.373    
        9.241       9.056       8.826       8.637       8.449       8.254       8.077       7.918       7.697       7.414    
        7.141       6.910       6.705       6.427       6.121       5.881       5.686       5.558       5.424       5.305    
        5.205       5.079       4.933       4.762       4.582       4.436       4.289       4.127       3.913       3.624    
        3.305       2.974       2.662       2.352       1.984       1.526       1.046      0.6944      0.3577       0.000    
   7    10.00       9.957       9.925       9.892       9.857       9.799       9.687       9.565       9.457       9.313    
        9.177       8.978       8.769       8.575       8.380       8.180       8.008       7.861       7.605       7.304    
        7.056       6.820       6.592       6.322       6.064       5.846       5.676       5.518       5.374       5.284    
        5.182       5.041       4.887       4.718       4.564       4.435       4.298       4.133       3.916       3.656    
        3.339       2.999       2.676       2.335       1.972       1.491      0.9993      0.6607      0.3129       0.000    
   8    10.00       9.964       9.935       9.900       9.859       9.764       9.628       9.511       9.375       9.238    
        9.087       8.883       8.704       8.504       8.286       8.089       7.940       7.763       7.519       7.227    
        6.938       6.722       6.532       6.254       5.983       5.789       5.596       5.425       5.329       5.240    
        5.117       4.976       4.848       4.702       4.545       4.413       4.309       4.186       3.976       3.679    
        3.333       3.032       2.732       2.335       1.932       1.395      0.9252      0.6467      0.2994       0.000    
   9    10.00       9.971       9.939       9.899       9.829       9.703       9.558       9.420       9.301       9.159    
        8.980       8.798       8.619       8.426       8.200       8.017       7.876       7.665       7.423       7.123    
        6.873       6.657       6.385       6.097       5.869       5.696       5.504       5.364       5.271       5.168    
        5.057       4.932       4.810       4.683       4.550       4.428       4.328       4.218       4.002       3.680    
        3.363       3.099       2.784       2.403       1.807       1.200      0.8809      0.5464      0.2084       0.000    
  10    10.00       9.971       9.937       9.880       9.772       9.623       9.460       9.353       9.240       9.071    
        8.914       8.734       8.555       8.345       8.135       7.969       7.778       7.560       7.303       7.060    
        6.815       6.479       6.198       5.972       5.780       5.623       5.445       5.305       5.211       5.130    
        5.014       4.879       4.771       4.655       4.538       4.457       4.359       4.231       3.984       3.666    
        3.422       3.190       2.829       2.255       1.565       1.126      0.7985      0.4877      0.2434       0.000    
  11    10.00       9.971       9.926       9.837       9.715       9.547       9.403       9.313       9.177       9.032    
        8.882       8.692       8.477       8.252       8.074       7.895       7.714       7.479       7.229       6.990    
        6.634       6.311       6.089       5.888       5.702       5.527       5.357       5.249       5.174       5.092    
        4.958       4.834       4.747       4.644       4.553       4.463       4.350       4.213       3.981       3.729    
        3.472       3.171       2.778       2.144       1.499       1.057      0.7474      0.5673      0.3135       0.000    
  12    10.00       9.969       9.905       9.790       9.630       9.463       9.348       9.257       9.138       9.008    
        8.842       8.639       8.422       8.223       8.043       7.844       7.636       7.393       7.139       6.809    
        6.458       6.214       5.995       5.789       5.583       5.410       5.293       5.215       5.117       5.008    
        4.888       4.800       4.724       4.646       4.567       4.476       4.358       4.193       3.980       3.754    
        3.479       3.151       2.613       1.900       1.351       1.040      0.8290      0.6017      0.3432       0.000    
  13    10.00       9.958       9.859       9.701       9.533       9.389       9.296       9.216       9.115       8.988    
        8.812       8.600       8.401       8.242       8.032       7.787       7.544       7.281       6.996       6.673    
        6.366       6.102       5.864       5.649       5.451       5.326       5.256       5.140       5.013       4.915    
        4.842       4.775       4.707       4.644       4.568       4.489       4.384       4.196       3.981       3.714    
        3.397       2.982       2.357       1.780       1.381       1.117      0.8710      0.6029      0.2981       0.000    
  14    10.00       9.923       9.780       9.606       9.450       9.336       9.274       9.200       9.102       8.963    
        8.768       8.586       8.424       8.257       8.017       7.728       7.465       7.167       6.852       6.516    
        6.217       5.953       5.719       5.507       5.355       5.270       5.181       5.039       4.933       4.862    
        4.811       4.747       4.691       4.632       4.564       4.502       4.377       4.185       3.959       3.625    
        3.253       2.763       2.283       1.864       1.468       1.159      0.8861      0.6032      0.2689       0.000    
  15    10.00       9.856       9.696       9.540       9.415       9.328       9.258       9.188       9.091       8.960    
        8.788       8.611       8.449       8.211       7.928       7.649       7.358       7.050       6.674       6.317    
        6.041       5.786       5.567       5.408       5.294       5.205       5.094       4.963       4.876       4.827    
        4.767       4.717       4.675       4.619       4.556       4.489       4.355       4.175       3.887       3.528    
        3.144       2.707       2.320       1.889       1.557       1.228      0.8972      0.5976      0.2454       0.000    
  16    10.00       9.831       9.658       9.515       9.407       9.327       9.256       9.191       9.097       8.960    
        8.798       8.627       8.425       8.120       7.810       7.578       7.291       6.878       6.449       6.121    
        5.838       5.627       5.449       5.315       5.189       5.110       4.987       4.881       4.818       4.761    
        4.719       4.689       4.647       4.594       4.538       4.459       4.336       4.116       3.805       3.482    
        3.156       2.738       2.305       1.926       1.614       1.268      0.8950      0.5360      0.2019       0.000    
  17    10.00       9.809       9.634       9.519       9.423       9.342       9.272       9.199       9.095       8.968    
        8.815       8.599       8.321       7.992       7.731       7.511       7.157       6.691       6.259       5.943    
        5.720       5.484       5.286       5.143       5.040       4.938       4.832       4.768       4.717       4.691    
        4.679       4.651       4.608       4.556       4.497       4.412       4.267       4.075       3.827       3.493    
        3.123       2.684       2.285       1.951       1.632       1.278      0.9141      0.5586      0.2364       0.000    
  18    10.00       9.797       9.634       9.534       9.447       9.369       9.299       9.210       9.108       8.971    
        8.787       8.530       8.221       7.942       7.686       7.361       6.951       6.526       6.146       5.836    
        5.560       5.259       5.089       4.970       4.881       4.764       4.697       4.642       4.611       4.623    
        4.622       4.599       4.555       4.498       4.437       4.348       4.212       4.059       3.845       3.539    
        3.062       2.595       2.270       1.953       1.682       1.311      0.9100      0.5486      0.2365       0.000    
  19    10.00       9.806       9.669       9.567       9.474       9.395       9.312       9.230       9.136       8.977    
        8.760       8.485       8.178       7.868       7.529       7.177       6.798       6.389       6.006       5.678    
        5.358       5.098       4.963       4.872       4.744       4.641       4.584       4.534       4.527       4.534    
        4.545       4.535       4.483       4.432       4.385       4.318       4.193       4.027       3.812       3.454    
        2.974       2.580       2.257       1.946       1.642       1.259      0.8753      0.5458      0.2575       0.000    
  20    10.00       9.817       9.700       9.610       9.520       9.426       9.329       9.240       9.145       8.982    
        8.746       8.460       8.103       7.699       7.311       7.024       6.643       6.207       5.872       5.547    
        5.263       5.047       4.885       4.745       4.581       4.509       4.473       4.449       4.455       4.457    
        4.465       4.446       4.407       4.382       4.346       4.281       4.136       3.971       3.727       3.325    
        2.913       2.600       2.228       1.873       1.542       1.163      0.8782      0.5425      0.2408       0.000    
  21    10.00       9.843       9.738       9.647       9.549       9.459       9.351       9.255       9.151       8.967    
        8.711       8.360       7.914       7.443       7.084       6.825       6.468       6.151       5.837       5.487    
        5.216       4.979       4.774       4.508       4.373       4.337       4.280       4.321       4.357       4.355    
        4.352       4.327       4.328       4.319       4.294       4.207       4.069       3.927       3.573       3.156    
        2.850       2.511       2.130       1.800       1.448       1.116      0.7953      0.4778      0.2403       0.000    
  22    10.00       9.877       9.767       9.668       9.572       9.487       9.364       9.239       9.118       8.927    
        8.614       8.172       7.669       7.230       6.923       6.654       6.384       6.154       5.809       5.466    
        5.181       4.841       4.473       4.197       4.095       3.995       4.008       4.116       4.155       4.175    
        4.193       4.194       4.225       4.250       4.227       4.141       4.008       3.745       3.342       3.076    
        2.747       2.382       2.039       1.721       1.421       1.027      0.6901      0.4579      0.2576       0.000    
  23    10.00       9.878       9.772       9.682       9.582       9.469       9.330       9.216       9.109       8.869    
        8.484       8.010       7.552       7.170       6.856       6.629       6.374       6.074       5.744       5.470    
        5.074       4.575       4.182       3.901       3.489       3.487       3.708       3.828       3.916       4.003    
        4.042       4.077       4.119       4.157       4.139       4.055       3.861       3.561       3.238       2.911    
        2.595       2.293       1.964       1.713       1.334      0.9339      0.6710      0.4401      0.2287       0.000    
  24    10.00       9.905       9.785       9.667       9.551       9.421       9.295       9.197       9.078       8.795    
        8.356       7.909       7.530       7.196       6.896       6.598       6.288       6.015       5.754       5.433    
        4.960       4.465       3.998       3.149       2.245       2.769       3.272       3.566       3.731       3.867    
        3.941       3.990       4.040       4.057       4.037       3.926       3.710       3.468       3.116       2.770    
        2.524       2.234       1.923       1.602       1.194      0.8661      0.6448      0.4119      0.1819       0.000    
  25    10.00       9.896       9.757       9.613       9.477       9.359       9.263       9.165       9.017       8.723    
        8.263       7.847       7.557       7.244       6.897       6.587       6.297       6.059       5.815       5.401    
        4.860       4.374       3.628       2.251     -0.6187       2.145       2.941       3.406       3.651       3.794    
        3.880       3.938       3.979       3.985       3.950       3.825       3.595       3.312       3.025       2.736    
        2.457       2.143       1.788       1.449       1.062      0.7943      0.6411      0.3998      0.1483       0.000    
  26    10.00       9.870       9.691       9.529       9.419       9.324       9.229       9.108       8.934       8.572    
        8.145       7.854       7.575       7.264       6.938       6.641       6.367       6.129       5.823       5.382    
        4.906       4.369       3.715       2.969       2.284       2.641       3.114       3.441       3.641       3.772    
        3.853       3.913       3.940       3.933       3.877       3.723       3.464       3.235       3.006       2.695    
        2.407       2.052       1.645       1.279      0.9640      0.7760      0.6053      0.3554      0.1513       0.000    
  27    10.00       9.842       9.651       9.499       9.407       9.283       9.158       9.006       8.773       8.431    
        8.128       7.871       7.587       7.284       6.964       6.728       6.537       6.215       5.828       5.379    
        4.975       4.584       4.056       3.562       3.172       3.228       3.407       3.567       3.694       3.787    
        3.872       3.922       3.929       3.902       3.822       3.643       3.435       3.235       2.967       2.675    
        2.377       1.948       1.482       1.139      0.9193      0.7624      0.5748      0.3752      0.1810       0.000    
  28    10.00       9.821       9.681       9.512       9.355       9.203       9.064       8.885       8.653       8.388    
        8.139       7.909       7.628       7.289       7.004       6.812       6.600       6.246       5.798       5.401    
        5.113       4.820       4.402       4.015       3.765       3.680       3.672       3.720       3.801       3.878    
        3.933       3.945       3.937       3.888       3.780       3.616       3.448       3.209       2.930       2.635    
        2.269       1.865       1.402       1.062      0.9087      0.7587      0.5920      0.3915      0.1816       0.000    
  29    10.00       9.827       9.653       9.474       9.286       9.139       8.983       8.784       8.588       8.378    
        8.156       7.928       7.655       7.369       7.123       6.896       6.612       6.220       5.812       5.502    
        5.255       4.996       4.652       4.305       4.100       3.988       3.917       3.915       3.954       3.980    
        3.984       3.978       3.950       3.879       3.753       3.610       3.451       3.227       2.918       2.543    
        2.208       1.777       1.315       1.047      0.9115      0.7638      0.5873      0.3823      0.1902       0.000    
  30    10.00       9.802       9.627       9.412       9.221       9.087       8.920       8.745       8.593       8.405    
        8.178       7.932       7.683       7.454       7.236       6.979       6.620       6.255       5.926       5.629    
        5.416       5.158       4.843       4.542       4.295       4.196       4.131       4.107       4.083       4.062    
        4.037       4.012       3.964       3.870       3.751       3.635       3.475       3.187       2.803       2.416    
        2.073       1.676       1.323       1.076      0.9324      0.7656      0.5769      0.4006      0.1966       0.000    
  31    10.00       9.776       9.574       9.369       9.197       9.057       8.899       8.744       8.594       8.411    
        8.188       7.941       7.726       7.537       7.332       7.044       6.688       6.369       6.108       5.843    
        5.613       5.321       5.010       4.756       4.505       4.346       4.282       4.219       4.174       4.127    
        4.093       4.044       3.974       3.880       3.763       3.631       3.378       3.054       2.731       2.352    
        2.027       1.629       1.284       1.104      0.9497      0.7925      0.5961      0.4009      0.1901       0.000    
  32    10.00       9.760       9.542       9.366       9.221       9.082       8.917       8.741       8.560       8.388    
        8.169       7.955       7.764       7.556       7.367       7.124       6.846       6.604       6.334       6.058    
        5.827       5.554       5.239       4.964       4.704       4.477       4.392       4.311       4.246       4.180    
        4.132       4.082       3.988       3.867       3.756       3.572       3.257       2.949       2.662       2.315    
        1.935       1.562       1.306       1.167      0.9979      0.7992      0.5915      0.3808      0.1900       0.000    
  33    10.00       9.753       9.567       9.426       9.281       9.120       8.922       8.727       8.534       8.337    
        8.155       7.976       7.788       7.590       7.379       7.190       6.987       6.780       6.559       6.289    
        6.019       5.763       5.497       5.176       4.855       4.598       4.470       4.390       4.311       4.227    
        4.167       4.097       3.995       3.876       3.711       3.457       3.132       2.869       2.590       2.183    
        1.834       1.588       1.383       1.217       1.024      0.8147      0.5602      0.3350      0.1510       0.000    
  34    10.00       9.775       9.623       9.491       9.331       9.133       8.925       8.698       8.486       8.322    
        8.159       7.995       7.826       7.621       7.436       7.253       7.077       6.912       6.700       6.426    
        6.171       5.938       5.674       5.342       4.990       4.703       4.537       4.443       4.353       4.259    
        4.178       4.104       4.000       3.852       3.651       3.338       3.019       2.777       2.443       2.082    
        1.864       1.700       1.502       1.288       1.034      0.7392      0.4529      0.2684      0.1113       0.000    
  35    10.00       9.812       9.676       9.542       9.371       9.149       8.913       8.661       8.460       8.319    
        8.209       8.045       7.858       7.641       7.444       7.314       7.185       7.016       6.797       6.536    
        6.292       6.061       5.818       5.447       5.051       4.778       4.596       4.486       4.381       4.275    
        4.192       4.102       3.981       3.790       3.482       3.154       2.938       2.682       2.338       2.117    
        1.963       1.776       1.578       1.368       1.047      0.6291      0.3483      0.2291      0.1163       0.000    
  36    10.00       9.835       9.717       9.589       9.408       9.146       8.857       8.621       8.476       8.366    
        8.219       8.033       7.862       7.671       7.497       7.368       7.245       7.097       6.924       6.682    
        6.430       6.185       5.888       5.492       5.101       4.824       4.650       4.522       4.395       4.283    
        4.192       4.077       3.887       3.606       3.324       3.092       2.886       2.617       2.339       2.190    
        2.033       1.865       1.664       1.394      0.9561      0.5307      0.3275      0.2097      0.1078       0.000    
  37    10.00       9.853       9.761       9.624       9.384       9.098       8.844       8.660       8.539       8.408    
        8.218       8.021       7.873       7.708       7.548       7.424       7.312       7.174       6.992       6.784    
        6.577       6.311       5.943       5.570       5.201       4.889       4.682       4.524       4.409       4.287    
        4.169       4.003       3.723       3.463       3.259       3.058       2.842       2.629       2.426       2.259    
        2.107       1.918       1.690       1.335      0.8783      0.5130      0.3076      0.1955      9.8067E-02   0.000    
  38    10.00       9.875       9.765       9.616       9.368       9.073       8.859       8.722       8.598       8.445    
        8.244       8.036       7.892       7.740       7.581       7.458       7.362       7.242       7.066       6.885    
        6.695       6.395       5.980       5.579       5.223       4.920       4.698       4.522       4.407       4.295    
        4.128       3.859       3.606       3.436       3.231       3.030       2.872       2.688       2.503       2.341    
        2.162       1.904       1.615       1.229      0.7743      0.4932      0.3471      0.2163      9.7058E-02   0.000    
  39    10.00       9.874       9.750       9.594       9.355       9.089       8.895       8.774       8.623       8.456    
        8.293       8.084       7.918       7.776       7.622       7.492       7.384       7.269       7.127       6.963    
        6.748       6.433       6.011       5.564       5.199       4.921       4.671       4.494       4.397       4.293    
        4.049       3.759       3.592       3.397       3.205       3.058       2.925       2.757       2.575       2.423    
        2.164       1.799       1.456       1.038      0.6929      0.5352      0.3986      0.2596      0.1335       0.000    
  40    10.00       9.865       9.756       9.597       9.378       9.155       8.968       8.808       8.631       8.477    
        8.355       8.153       7.945       7.801       7.658       7.514       7.395       7.304       7.181       6.993    
        6.751       6.393       5.966       5.549       5.172       4.885       4.611       4.469       4.383       4.245    
        4.023       3.796       3.568       3.364       3.225       3.096       2.968       2.810       2.642       2.443    
        2.092       1.693       1.321      0.9816      0.7443      0.5817      0.4455      0.3145      0.1544       0.000    
  41    10.00       9.884       9.797       9.643       9.418       9.188       9.010       8.868       8.694       8.511    
        8.367       8.186       7.995       7.858       7.694       7.521       7.417       7.321       7.168       6.968    
        6.721       6.376       5.950       5.542       5.167       4.787       4.529       4.449       4.359       4.254    
        4.073       3.800       3.569       3.403       3.263       3.147       3.006       2.854       2.679       2.370    
        1.958       1.568       1.244      0.9927      0.7872      0.6361      0.4903      0.3465      0.1825       0.000    
  42    10.00       9.913       9.818       9.672       9.479       9.261       9.060       8.914       8.759       8.560    
        8.378       8.204       8.044       7.913       7.742       7.557       7.434       7.306       7.141       6.917    
        6.638       6.264       5.895       5.492       5.006       4.663       4.521       4.458       4.380       4.264    
        4.053       3.814       3.595       3.427       3.312       3.187       3.061       2.897       2.621       2.211    
        1.850       1.557       1.274      0.9897      0.7985      0.6701      0.5301      0.3613      0.2005       0.000    
  43    10.00       9.932       9.831       9.682       9.493       9.313       9.135       8.973       8.784       8.582    
        8.414       8.241       8.083       7.962       7.804       7.599       7.438       7.293       7.068       6.783    
        6.510       6.151       5.807       5.352       4.892       4.660       4.546       4.473       4.397       4.275    
        4.075       3.854       3.643       3.476       3.366       3.241       3.078       2.844       2.441       2.076    
        1.849       1.589       1.291      0.9950      0.7921      0.6731      0.5650      0.3914      0.1834       0.000    
  44    10.00       9.925       9.840       9.686       9.516       9.386       9.210       8.992       8.780       8.612    
        8.447       8.275       8.136       8.011       7.830       7.615       7.432       7.259       6.994       6.704    
        6.377       6.016       5.653       5.195       4.847       4.673       4.576       4.511       4.427       4.275    
        4.069       3.891       3.704       3.548       3.435       3.269       3.052       2.717       2.304       2.060    
        1.852       1.580       1.282       1.012      0.8039      0.6762      0.5661      0.3839      0.1692       0.000    
  45    10.00       9.910       9.809       9.686       9.562       9.399       9.217       9.013       8.802       8.635    
        8.465       8.311       8.189       8.050       7.854       7.626       7.420       7.223       6.936       6.594    
        6.216       5.832       5.439       5.099       4.856       4.708       4.613       4.544       4.441       4.316    
        4.136       3.934       3.767       3.608       3.450       3.274       3.035       2.676       2.316       2.030    
        1.792       1.536       1.256       1.013      0.8308      0.7244      0.5596      0.3332      0.1519       0.000    
  46    10.00       9.893       9.788       9.690       9.552       9.368       9.193       9.027       8.822       8.644    
        8.495       8.351       8.229       8.065       7.858       7.656       7.437       7.179       6.868       6.495    
        6.049       5.664       5.348       5.088       4.902       4.771       4.655       4.563       4.482       4.342    
        4.153       3.978       3.816       3.635       3.478       3.307       3.038       2.624       2.244       1.989    
        1.763       1.516       1.252       1.037      0.8956      0.7586      0.5086      0.2500      0.1087       0.000    
  47    10.00       9.886       9.780       9.647       9.488       9.337       9.187       9.008       8.822       8.663    
        8.527       8.399       8.231       8.054       7.869       7.673       7.437       7.136       6.842       6.390    
        5.901       5.599       5.325       5.121       4.948       4.821       4.706       4.594       4.499       4.355    
        4.158       3.986       3.823       3.652       3.514       3.309       2.936       2.563       2.243       1.970    
        1.772       1.538       1.302       1.094      0.9188      0.6976      0.4196      0.2193      9.1318E-02   0.000    
  48    10.00       9.874       9.747       9.606       9.461       9.328       9.176       9.013       8.840       8.685    
        8.547       8.399       8.217       8.035       7.854       7.661       7.436       7.152       6.787       6.336    
        5.911       5.601       5.334       5.146       5.006       4.850       4.734       4.641       4.523       4.330    
        4.136       3.969       3.819       3.692       3.511       3.241       2.884       2.546       2.243       2.002    
        1.788       1.564       1.352       1.117      0.8540      0.5682      0.3593      0.2131      9.6293E-02   0.000    
  49    10.00       9.863       9.726       9.586       9.469       9.331       9.170       9.009       8.870       8.710    
        8.545       8.360       8.181       8.029       7.823       7.636       7.448       7.132       6.770       6.410    
        5.962       5.615       5.350       5.185       5.022       4.855       4.765       4.677       4.492       4.258    
        4.092       3.958       3.848       3.684       3.474       3.232       2.873       2.536       2.298       2.041    
        1.789       1.583       1.357       1.080      0.7574      0.5073      0.3598      0.2322      0.1191       0.000    
  50    10.00       9.868       9.731       9.589       9.461       9.325       9.182       9.025       8.878       8.735    
        8.534       8.340       8.177       7.972       7.763       7.620       7.442       7.196       6.838       6.482    
        6.026       5.590       5.359       5.192       5.022       4.886       4.778       4.661       4.443       4.220    
        4.082       3.971       3.844       3.673       3.479       3.247       2.884       2.538       2.307       2.076    
        1.836       1.576       1.321       1.025      0.7064      0.5193      0.3872      0.2625      0.1583       0.000    

 HEAD WILL BE SAVED ON UNIT   51 AT END OF TIME STEP  89, STRESS PERIOD    2

 DRAWDOWN WILL BE SAVED ON UNIT   52 AT END OF TIME STEP  89, STRESS PERIOD    2
1
  VOLUMETRIC BUDGET FOR ENTIRE MODEL AT END OF TIME STEP 89 IN STRESS PERIOD   2
  ------------------------------------------------------------------------------

     CUMULATIVE VOLUMES      L**3       RATES FOR THIS TIME STEP      L**3/T
     ------------------                 ------------------------

           IN:                                      IN:
           ---                                      ---
             STORAGE =       42626.1289               STORAGE =         432.2846
       CONSTANT HEAD =       35129.0977         CONSTANT HEAD =         427.6123
               WELLS =           0.0000                 WELLS =           0.0000

            TOTAL IN =       77755.2266              TOTAL IN =         859.8969

          OUT:                                     OUT:
          ----                                     ----
             STORAGE =       1.1143E-02               STORAGE =           0.0000
       CONSTANT HEAD =       33255.2031         CONSTANT HEAD =         359.8966
               WELLS =       44500.0000                 WELLS =         500.0000

           TOTAL OUT =       77755.2109             TOTAL OUT =         859.8966

            IN - OUT =       1.5625E-02              IN - OUT =       2.4414E-04

 PERCENT DISCREPANCY =           0.00     PERCENT DISCREPANCY =           0.00






          TIME SUMMARY AT END OF TIME STEP  89 IN STRESS PERIOD    2
                    SECONDS     MINUTES      HOURS       DAYS        YEARS
                    -----------------------------------------------------------
   TIME STEP LENGTH  86400.      1440.0      24.000      1.0000     2.73785E-03
 STRESS PERIOD TIME 7.68960E+06 1.28160E+05  2136.0      89.000     0.24367    
         TOTAL TIME 7.77600E+06 1.29600E+05  2160.0      90.000     0.24641    
1
 
 SOLVING FOR HEAD 

 OUTPUT CONTROL FOR STRESS PERIOD    2   TIME STEP  90
    SAVE HEAD FOR ALL LAYERS
    SAVE DRAWDOWN FOR ALL LAYERS
    SAVE BUDGET
    PRINT HEAD FOR ALL LAYERS
    PRINT BUDGET
 UBDSV1 SAVING "         STORAGE" ON UNIT  53 AT TIME STEP 90, STRESS PERIOD   2
 UBDSV2 SAVING "   CONSTANT HEAD" ON UNIT  53 AT TIME STEP 90, STRESS PERIOD   2
 UBDSV1 SAVING "FLOW RIGHT FACE " ON UNIT  53 AT TIME STEP 90, STRESS PERIOD   2
 UBDSV1 SAVING "FLOW FRONT FACE " ON UNIT  53 AT TIME STEP 90, STRESS PERIOD   2
1
              HEAD IN LAYER   1 AT END OF TIME STEP  90 IN STRESS PERIOD    2
  ---------------------------------------------------------------------------

            1           2           3           4           5           6           7           8           9          10
           11          12          13          14          15          16          17          18          19          20
           21          22          23          24          25          26          27          28          29          30
           31          32          33          34          35          36          37          38          39          40
           41          42          43          44          45          46          47          48          49          50
 ........................................................................................................................
   1    10.00       9.949       9.898       9.838       9.791       9.752       9.699       9.625       9.545       9.472    
        9.310       9.108       8.958       8.792       8.615       8.437       8.271       8.081       7.828       7.576    
        7.403       7.208       6.950       6.689       6.456       6.255       5.968       5.706       5.523       5.331    
        5.168       5.064       4.955       4.831       4.712       4.565       4.407       4.194       3.950       3.682    
        3.335       2.982       2.515       2.003       1.617       1.338       1.130      0.8912      0.5233       0.000    
   2    10.00       9.943       9.889       9.839       9.799       9.760       9.701       9.626       9.553       9.454    
        9.296       9.114       8.946       8.795       8.631       8.447       8.250       8.054       7.818       7.563    
        7.376       7.215       6.940       6.657       6.450       6.222       5.944       5.696       5.484       5.303    
        5.166       5.071       4.979       4.846       4.707       4.562       4.380       4.181       3.945       3.639    
        3.315       3.014       2.525       2.017       1.675       1.427       1.187      0.9205      0.5560       0.000    
   3    10.00       9.934       9.889       9.854       9.816       9.776       9.712       9.623       9.534       9.426    
        9.282       9.121       8.959       8.806       8.611       8.379       8.186       8.017       7.799       7.576    
        7.385       7.154       6.881       6.632       6.407       6.150       5.882       5.636       5.419       5.287    
        5.177       5.087       4.994       4.849       4.702       4.546       4.366       4.144       3.878       3.644    
        3.359       2.949       2.472       2.108       1.818       1.531       1.236      0.9330      0.5271       0.000    
   4    10.00       9.934       9.894       9.862       9.836       9.794       9.721       9.618       9.512       9.404    
        9.267       9.122       8.959       8.766       8.525       8.310       8.172       7.982       7.771       7.597    
        7.332       7.038       6.798       6.576       6.358       6.050       5.754       5.556       5.412       5.300    
        5.202       5.107       5.006       4.836       4.655       4.513       4.323       4.092       3.867       3.664    
        3.339       2.888       2.528       2.223       1.912       1.587       1.232      0.8779      0.4502       0.000    
   5    10.00       9.940       9.903       9.871       9.847       9.804       9.726       9.608       9.490       9.382    
        9.265       9.115       8.906       8.679       8.475       8.305       8.132       7.954       7.757       7.509    
        7.200       6.958       6.759       6.535       6.252       5.932       5.690       5.552       5.433       5.319    
        5.206       5.090       4.974       4.808       4.624       4.452       4.282       4.102       3.899       3.631    
        3.263       2.921       2.615       2.307       1.969       1.590       1.145      0.7385      0.3826       0.000    
   6    10.00       9.950       9.913       9.883       9.850       9.801       9.719       9.591       9.488       9.371    
        9.240       9.054       8.823       8.634       8.446       8.251       8.074       7.914       7.693       7.410    
        7.136       6.905       6.700       6.421       6.115       5.875       5.680       5.552       5.418       5.298    
        5.199       5.073       4.927       4.756       4.576       4.430       4.284       4.121       3.908       3.620    
        3.301       2.971       2.659       2.349       1.982       1.524       1.045      0.6937      0.3573       0.000    
   7    10.00       9.957       9.925       9.892       9.857       9.798       9.687       9.564       9.456       9.311    
        9.176       8.976       8.766       8.572       8.376       8.177       8.005       7.856       7.601       7.300    
        7.051       6.814       6.586       6.316       6.057       5.839       5.669       5.512       5.367       5.277    
        5.175       5.034       4.880       4.712       4.558       4.429       4.292       4.127       3.911       3.651    
        3.335       2.996       2.673       2.332       1.970       1.490      0.9982      0.6600      0.3125       0.000    
   8    10.00       9.964       9.935       9.900       9.858       9.764       9.627       9.510       9.374       9.236    
        9.085       8.880       8.701       8.501       8.283       8.085       7.936       7.759       7.514       7.222    
        6.932       6.716       6.526       6.247       5.977       5.782       5.589       5.418       5.322       5.234    
        5.110       4.970       4.841       4.695       4.539       4.407       4.303       4.180       3.971       3.674    
        3.329       3.028       2.728       2.332       1.930       1.393      0.9242      0.6460      0.2991       0.000    
   9    10.00       9.971       9.939       9.898       9.828       9.703       9.556       9.419       9.299       9.157    
        8.978       8.795       8.616       8.423       8.196       8.013       7.871       7.660       7.418       7.117    
        6.868       6.651       6.379       6.091       5.862       5.688       5.497       5.357       5.264       5.161    
        5.049       4.924       4.803       4.676       4.543       4.421       4.321       4.212       3.996       3.675    
        3.359       3.095       2.780       2.400       1.805       1.199      0.8799      0.5458      0.2082       0.000    
  10    10.00       9.971       9.937       9.880       9.772       9.622       9.459       9.352       9.238       9.068    
        8.912       8.731       8.552       8.342       8.131       7.965       7.773       7.555       7.298       7.054    
        6.809       6.472       6.191       5.965       5.773       5.615       5.438       5.297       5.204       5.123    
        5.007       4.872       4.764       4.648       4.531       4.450       4.352       4.225       3.978       3.661    
        3.417       3.186       2.826       2.253       1.563       1.125      0.7976      0.4871      0.2431       0.000    
  11    10.00       9.971       9.926       9.837       9.714       9.546       9.401       9.311       9.175       9.030    
        8.880       8.689       8.473       8.248       8.070       7.890       7.709       7.474       7.224       6.984    
        6.627       6.304       6.082       5.880       5.694       5.519       5.349       5.241       5.166       5.084    
        4.950       4.826       4.739       4.637       4.546       4.456       4.344       4.207       3.975       3.723    
        3.467       3.166       2.774       2.142       1.497       1.056      0.7465      0.5666      0.3132       0.000    
  12    10.00       9.969       9.905       9.790       9.629       9.461       9.346       9.256       9.136       9.005    
        8.839       8.636       8.419       8.219       8.038       7.839       7.631       7.388       7.133       6.803    
        6.450       6.207       5.988       5.782       5.575       5.402       5.285       5.207       5.109       5.000    
        4.880       4.792       4.716       4.638       4.559       4.468       4.351       4.187       3.974       3.749    
        3.474       3.147       2.610       1.898       1.349       1.039      0.8280      0.6009      0.3428       0.000    
  13    10.00       9.958       9.858       9.700       9.532       9.387       9.294       9.214       9.112       8.986    
        8.810       8.597       8.397       8.238       8.028       7.783       7.538       7.275       6.990       6.667    
        6.359       6.094       5.856       5.641       5.443       5.318       5.248       5.132       5.005       4.907    
        4.834       4.767       4.699       4.636       4.560       4.481       4.376       4.190       3.974       3.708    
        3.392       2.977       2.353       1.777       1.380       1.116      0.8699      0.6022      0.2977       0.000    
  14    10.00       9.923       9.779       9.605       9.449       9.334       9.272       9.198       9.100       8.960    
        8.765       8.583       8.420       8.253       8.012       7.722       7.460       7.161       6.845       6.508    
        6.210       5.945       5.710       5.499       5.346       5.261       5.173       5.030       4.924       4.853    
        4.802       4.738       4.683       4.624       4.556       4.494       4.370       4.178       3.953       3.619    
        3.248       2.759       2.280       1.861       1.466       1.158      0.8850      0.6025      0.2686       0.000    
  15    10.00       9.855       9.695       9.539       9.414       9.326       9.256       9.186       9.089       8.958    
        8.785       8.607       8.445       8.206       7.923       7.643       7.352       7.044       6.667       6.310    
        6.033       5.777       5.558       5.399       5.286       5.197       5.085       4.954       4.868       4.819    
        4.758       4.708       4.667       4.610       4.548       4.481       4.347       4.168       3.881       3.523    
        3.139       2.702       2.317       1.886       1.555       1.226      0.8960      0.5969      0.2451       0.000    
  16    10.00       9.831       9.657       9.514       9.406       9.325       9.253       9.189       9.094       8.958    
        8.795       8.624       8.421       8.116       7.805       7.572       7.284       6.870       6.441       6.113    
        5.830       5.618       5.440       5.306       5.180       5.101       4.978       4.872       4.809       4.752    
        4.710       4.681       4.638       4.585       4.529       4.451       4.328       4.109       3.798       3.476    
        3.150       2.733       2.301       1.923       1.611       1.267      0.8938      0.5353      0.2017       0.000    
  17    10.00       9.808       9.633       9.518       9.422       9.340       9.270       9.197       9.093       8.965    
        8.812       8.595       8.316       7.987       7.725       7.505       7.150       6.683       6.251       5.935    
        5.711       5.475       5.277       5.133       5.031       4.928       4.822       4.759       4.708       4.682    
        4.670       4.642       4.599       4.548       4.488       4.404       4.259       4.067       3.820       3.486    
        3.118       2.679       2.281       1.948       1.630       1.276      0.9129      0.5579      0.2361       0.000    
  18    10.00       9.797       9.632       9.533       9.445       9.367       9.297       9.208       9.106       8.968    
        8.784       8.526       8.216       7.936       7.681       7.355       6.943       6.518       6.137       5.827    
        5.551       5.250       5.080       4.960       4.871       4.754       4.687       4.632       4.601       4.613    
        4.613       4.589       4.546       4.489       4.428       4.339       4.204       4.051       3.838       3.532    
        3.056       2.591       2.267       1.950       1.680       1.309      0.9089      0.5479      0.2363       0.000    
  19    10.00       9.806       9.668       9.566       9.473       9.393       9.310       9.228       9.133       8.974    
        8.756       8.481       8.173       7.863       7.523       7.170       6.790       6.381       5.997       5.669    
        5.348       5.088       4.953       4.862       4.734       4.631       4.574       4.524       4.517       4.524    
        4.536       4.525       4.474       4.423       4.376       4.309       4.184       4.019       3.805       3.447    
        2.969       2.575       2.253       1.943       1.640       1.257      0.8742      0.5452      0.2572       0.000    
  20    10.00       9.816       9.699       9.609       9.519       9.425       9.327       9.238       9.142       8.979    
        8.742       8.456       8.098       7.693       7.304       7.017       6.635       6.198       5.863       5.538    
        5.253       5.038       4.875       4.735       4.571       4.499       4.463       4.439       4.445       4.448    
        4.456       4.436       4.397       4.372       4.337       4.272       4.128       3.963       3.720       3.319    
        2.908       2.596       2.225       1.871       1.540       1.162      0.8771      0.5418      0.2405       0.000    
  21    10.00       9.843       9.738       9.646       9.548       9.458       9.349       9.252       9.149       8.964    
        8.708       8.356       7.908       7.437       7.077       6.817       6.460       6.142       5.828       5.478    
        5.207       4.969       4.765       4.498       4.363       4.327       4.270       4.311       4.347       4.344    
        4.342       4.317       4.318       4.310       4.285       4.198       4.060       3.919       3.566       3.150    
        2.845       2.507       2.127       1.797       1.446       1.115      0.7942      0.4772      0.2400       0.000    
  22    10.00       9.876       9.766       9.667       9.571       9.486       9.362       9.236       9.115       8.924    
        8.610       8.167       7.663       7.223       6.915       6.646       6.375       6.146       5.800       5.456    
        5.171       4.831       4.463       4.186       4.085       3.984       3.998       4.105       4.144       4.165    
        4.183       4.183       4.215       4.240       4.218       4.132       3.999       3.737       3.335       3.070    
        2.742       2.377       2.036       1.718       1.419       1.026      0.6892      0.4573      0.2573       0.000    
  23    10.00       9.878       9.771       9.682       9.581       9.468       9.328       9.213       9.107       8.866    
        8.480       8.004       7.546       7.163       6.848       6.621       6.366       6.065       5.735       5.461    
        5.065       4.565       4.172       3.891       3.478       3.477       3.697       3.818       3.906       3.993    
        4.032       4.067       4.109       4.147       4.129       4.046       3.852       3.554       3.232       2.906    
        2.591       2.289       1.961       1.710       1.332      0.9326      0.6701      0.4395      0.2284       0.000    
  24    10.00       9.905       9.784       9.666       9.549       9.419       9.293       9.195       9.075       8.791    
        8.352       7.903       7.524       7.189       6.889       6.590       6.279       6.007       5.745       5.424    
        4.950       4.455       3.988       3.139       2.234       2.758       3.262       3.555       3.720       3.856    
        3.930       3.980       4.029       4.047       4.026       3.916       3.701       3.461       3.109       2.765    
        2.519       2.230       1.920       1.599       1.192      0.8649      0.6440      0.4114      0.1817       0.000    
  25    10.00       9.896       9.756       9.612       9.475       9.357       9.261       9.162       9.014       8.720    
        8.259       7.841       7.550       7.237       6.889       6.579       6.288       6.050       5.806       5.392    
        4.850       4.364       3.617       2.240     -0.6303       2.134       2.930       3.396       3.640       3.783    
        3.869       3.927       3.969       3.974       3.940       3.815       3.587       3.304       3.018       2.730    
        2.452       2.139       1.785       1.446       1.060      0.7932      0.6402      0.3992      0.1481       0.000    
  26    10.00       9.870       9.690       9.527       9.418       9.322       9.227       9.106       8.931       8.568    
        8.140       7.848       7.568       7.257       6.930       6.633       6.358       6.120       5.814       5.372    
        4.896       4.359       3.704       2.958       2.273       2.630       3.103       3.430       3.630       3.761    
        3.842       3.903       3.929       3.922       3.867       3.714       3.455       3.227       2.999       2.689    
        2.402       2.048       1.642       1.277      0.9626      0.7749      0.6045      0.3549      0.1511       0.000    
  27    10.00       9.841       9.650       9.498       9.405       9.281       9.156       9.003       8.770       8.426    
        8.123       7.865       7.581       7.277       6.957       6.720       6.529       6.206       5.819       5.369    
        4.965       4.574       4.046       3.552       3.161       3.217       3.397       3.556       3.683       3.776    
        3.861       3.911       3.919       3.892       3.812       3.634       3.427       3.227       2.961       2.670    
        2.373       1.945       1.480       1.137      0.9179      0.7613      0.5740      0.3746      0.1808       0.000    
  28    10.00       9.820       9.680       9.510       9.353       9.200       9.061       8.882       8.649       8.383    
        8.134       7.904       7.622       7.282       6.997       6.805       6.592       6.237       5.789       5.392    
        5.104       4.810       4.392       4.005       3.755       3.670       3.661       3.709       3.790       3.867    
        3.922       3.934       3.926       3.878       3.770       3.607       3.440       3.202       2.924       2.629    
        2.265       1.861       1.400       1.061      0.9074      0.7576      0.5912      0.3910      0.1814       0.000    
  29    10.00       9.827       9.652       9.472       9.284       9.137       8.980       8.780       8.584       8.373    
        8.151       7.923       7.649       7.362       7.116       6.888       6.604       6.212       5.803       5.493    
        5.246       4.987       4.642       4.295       4.090       3.978       3.907       3.904       3.944       3.970    
        3.973       3.968       3.940       3.869       3.744       3.601       3.443       3.220       2.911       2.538    
        2.204       1.774       1.312       1.046      0.9102      0.7627      0.5865      0.3817      0.1899       0.000    
  30    10.00       9.802       9.626       9.410       9.219       9.084       8.917       8.741       8.590       8.400    
        8.173       7.927       7.678       7.448       7.229       6.972       6.612       6.247       5.917       5.620    
        5.406       5.148       4.833       4.532       4.285       4.186       4.121       4.096       4.073       4.051    
        4.027       4.002       3.954       3.860       3.742       3.627       3.467       3.180       2.796       2.411    
        2.070       1.673       1.321       1.074      0.9310      0.7645      0.5761      0.4000      0.1963       0.000    
  31    10.00       9.776       9.573       9.367       9.194       9.054       8.896       8.740       8.590       8.407    
        8.183       7.935       7.720       7.531       7.325       7.037       6.681       6.361       6.100       5.834    
        5.604       5.312       5.001       4.746       4.495       4.336       4.272       4.209       4.164       4.116    
        4.083       4.034       3.965       3.871       3.754       3.622       3.370       3.047       2.726       2.347    
        2.023       1.626       1.282       1.102      0.9484      0.7913      0.5953      0.4004      0.1899       0.000    
  32    10.00       9.759       9.541       9.365       9.219       9.079       8.914       8.738       8.556       8.383    
        8.164       7.950       7.759       7.550       7.361       7.117       6.839       6.596       6.326       6.050    
        5.818       5.544       5.229       4.955       4.694       4.467       4.383       4.301       4.237       4.171    
        4.122       4.073       3.979       3.858       3.747       3.564       3.250       2.943       2.657       2.311    
        1.931       1.560       1.304       1.165      0.9965      0.7981      0.5907      0.3803      0.1898       0.000    
  33    10.00       9.752       9.566       9.424       9.279       9.117       8.919       8.724       8.530       8.333    
        8.150       7.971       7.782       7.584       7.373       7.184       6.980       6.773       6.551       6.281    
        6.011       5.754       5.487       5.166       4.846       4.588       4.460       4.381       4.301       4.218    
        4.158       4.088       3.986       3.867       3.703       3.450       3.125       2.863       2.585       2.179    
        1.832       1.586       1.381       1.215       1.022      0.8136      0.5595      0.3346      0.1508       0.000    
  34    10.00       9.774       9.622       9.489       9.329       9.131       8.923       8.695       8.482       8.318    
        8.154       7.990       7.820       7.616       7.430       7.247       7.070       6.905       6.693       6.418    
        6.163       5.929       5.666       5.332       4.981       4.694       4.527       4.434       4.344       4.250    
        4.169       4.095       3.992       3.844       3.644       3.332       3.013       2.772       2.439       2.079    
        1.861       1.698       1.500       1.286       1.033      0.7382      0.4523      0.2681      0.1112       0.000    
  35    10.00       9.812       9.675       9.541       9.369       9.147       8.910       8.658       8.456       8.314    
        8.205       8.041       7.853       7.636       7.438       7.308       7.178       7.009       6.790       6.528    
        6.284       6.053       5.810       5.438       5.042       4.769       4.587       4.477       4.372       4.266    
        4.183       4.094       3.972       3.783       3.475       3.148       2.933       2.677       2.335       2.114    
        1.960       1.774       1.575       1.366       1.045      0.6283      0.3478      0.2288      0.1162       0.000    
  36    10.00       9.834       9.716       9.588       9.406       9.143       8.854       8.617       8.472       8.362    
        8.214       8.029       7.857       7.666       7.492       7.362       7.239       7.090       6.917       6.675    
        6.422       6.177       5.880       5.483       5.092       4.815       4.642       4.514       4.386       4.275    
        4.184       4.069       3.880       3.599       3.318       3.087       2.881       2.613       2.336       2.187    
        2.030       1.863       1.662       1.392      0.9549      0.5300      0.3271      0.2095      0.1077       0.000    
  37    10.00       9.852       9.761       9.623       9.382       9.096       8.842       8.656       8.536       8.404    
        8.214       8.016       7.868       7.703       7.542       7.418       7.306       7.168       6.986       6.778    
        6.570       6.303       5.935       5.562       5.193       4.881       4.674       4.516       4.402       4.279    
        4.161       3.996       3.717       3.457       3.254       3.053       2.838       2.625       2.423       2.256    
        2.105       1.916       1.688       1.333      0.8772      0.5124      0.3072      0.1953      9.7954E-02   0.000    
  38    10.00       9.875       9.765       9.615       9.366       9.071       8.856       8.719       8.594       8.441    
        8.240       8.032       7.887       7.735       7.575       7.452       7.356       7.236       7.059       6.878    
        6.688       6.388       5.973       5.571       5.215       4.913       4.690       4.515       4.400       4.288    
        4.121       3.853       3.601       3.431       3.227       3.026       2.868       2.685       2.499       2.338    
        2.159       1.902       1.613       1.227      0.7734      0.4927      0.3467      0.2160      9.6954E-02   0.000    
  39    10.00       9.874       9.750       9.593       9.353       9.087       8.893       8.771       8.620       8.453    
        8.290       8.079       7.913       7.771       7.616       7.486       7.378       7.263       7.121       6.957    
        6.742       6.427       6.004       5.557       5.192       4.914       4.665       4.487       4.391       4.287    
        4.043       3.754       3.587       3.393       3.201       3.055       2.921       2.753       2.572       2.420    
        2.161       1.797       1.455       1.037      0.6921      0.5347      0.3982      0.2593      0.1334       0.000    
  40    10.00       9.864       9.756       9.596       9.377       9.154       8.965       8.806       8.628       8.474    
        8.352       8.149       7.940       7.796       7.653       7.508       7.390       7.298       7.175       6.987    
        6.744       6.387       5.959       5.543       5.166       4.879       4.605       4.463       4.378       4.240    
        4.019       3.791       3.564       3.359       3.221       3.092       2.964       2.807       2.639       2.440    
        2.090       1.691       1.320      0.9806      0.7436      0.5811      0.4450      0.3142      0.1543       0.000    
  41    10.00       9.883       9.797       9.643       9.417       9.186       9.007       8.865       8.691       8.507    
        8.364       8.182       7.990       7.854       7.689       7.515       7.412       7.316       7.162       6.962    
        6.715       6.370       5.945       5.536       5.161       4.781       4.524       4.444       4.354       4.249    
        4.068       3.796       3.565       3.399       3.259       3.143       3.002       2.850       2.676       2.367    
        1.956       1.567       1.243      0.9917      0.7864      0.6355      0.4899      0.3462      0.1823       0.000    
  42    10.00       9.913       9.818       9.671       9.478       9.259       9.058       8.912       8.756       8.557    
        8.374       8.201       8.040       7.909       7.738       7.552       7.429       7.301       7.135       6.911    
        6.633       6.259       5.890       5.487       5.001       4.659       4.517       4.453       4.375       4.259    
        4.049       3.810       3.591       3.423       3.308       3.184       3.058       2.894       2.618       2.208    
        1.848       1.556       1.273      0.9887      0.7977      0.6695      0.5296      0.3610      0.2004       0.000    
  43    10.00       9.932       9.831       9.681       9.492       9.311       9.133       8.971       8.782       8.579    
        8.411       8.237       8.079       7.958       7.800       7.595       7.434       7.288       7.063       6.778    
        6.505       6.147       5.803       5.347       4.888       4.656       4.542       4.469       4.392       4.271    
        4.071       3.851       3.640       3.472       3.362       3.238       3.075       2.841       2.439       2.074    
        1.847       1.588       1.290      0.9941      0.7914      0.6725      0.5645      0.3911      0.1833       0.000    
  44    10.00       9.925       9.840       9.685       9.515       9.385       9.208       8.990       8.778       8.610    
        8.444       8.272       8.133       8.008       7.826       7.611       7.428       7.255       6.990       6.700    
        6.373       6.013       5.649       5.192       4.843       4.669       4.572       4.507       4.423       4.272    
        4.065       3.887       3.701       3.545       3.432       3.266       3.049       2.714       2.302       2.058    
        1.851       1.579       1.281       1.011      0.8032      0.6757      0.5657      0.3836      0.1691       0.000    
  45    10.00       9.910       9.808       9.685       9.561       9.398       9.216       9.011       8.800       8.633    
        8.463       8.309       8.186       8.047       7.851       7.623       7.417       7.220       6.933       6.590    
        6.213       5.828       5.436       5.096       4.852       4.704       4.609       4.540       4.437       4.312    
        4.133       3.931       3.763       3.604       3.447       3.271       3.032       2.674       2.314       2.029    
        1.791       1.535       1.255       1.012      0.8302      0.7238      0.5591      0.3329      0.1518       0.000    
  46    10.00       9.892       9.787       9.689       9.552       9.367       9.192       9.026       8.820       8.642    
        8.493       8.348       8.227       8.063       7.856       7.653       7.434       7.176       6.865       6.492    
        6.045       5.661       5.345       5.084       4.898       4.768       4.651       4.559       4.478       4.338    
        4.149       3.975       3.812       3.632       3.475       3.304       3.035       2.622       2.242       1.987    
        1.762       1.515       1.251       1.037      0.8950      0.7581      0.5082      0.2498      0.1086       0.000    
  47    10.00       9.886       9.780       9.646       9.487       9.336       9.186       9.007       8.820       8.662    
        8.525       8.397       8.229       8.052       7.867       7.670       7.434       7.133       6.840       6.387    
        5.898       5.596       5.322       5.117       4.945       4.817       4.703       4.590       4.495       4.352    
        4.154       3.982       3.820       3.649       3.511       3.307       2.933       2.561       2.242       1.969    
        1.771       1.537       1.301       1.093      0.9182      0.6971      0.4193      0.2191      9.1258E-02   0.000    
  48    10.00       9.874       9.747       9.605       9.461       9.327       9.175       9.011       8.839       8.683    
        8.545       8.397       8.215       8.032       7.851       7.659       7.434       7.149       6.784       6.333    
        5.908       5.598       5.331       5.142       5.002       4.847       4.731       4.637       4.520       4.326    
        4.133       3.966       3.816       3.689       3.508       3.238       2.882       2.545       2.242       2.000    
        1.787       1.563       1.351       1.116      0.8534      0.5679      0.3591      0.2130      9.6235E-02   0.000    
  49    10.00       9.863       9.725       9.586       9.468       9.330       9.169       9.008       8.869       8.708    
        8.543       8.358       8.179       8.027       7.821       7.633       7.446       7.129       6.767       6.407    
        5.959       5.613       5.347       5.182       5.019       4.852       4.761       4.673       4.489       4.255    
        4.089       3.955       3.845       3.681       3.472       3.230       2.871       2.534       2.296       2.040    
        1.788       1.583       1.356       1.079      0.7570      0.5070      0.3596      0.2321      0.1190       0.000    
  50    10.00       9.868       9.730       9.589       9.460       9.325       9.181       9.023       8.877       8.734    
        8.532       8.338       8.175       7.970       7.761       7.618       7.440       7.194       6.836       6.480    
        6.024       5.587       5.356       5.189       5.019       4.883       4.775       4.658       4.440       4.217    
        4.079       3.968       3.841       3.671       3.477       3.245       2.883       2.536       2.305       2.074    
        1.835       1.575       1.320       1.024      0.7060      0.5190      0.3870      0.2623      0.1582       0.000    

 HEAD WILL BE SAVED ON UNIT   51 AT END OF TIME STEP  90, STRESS PERIOD    2

 DRAWDOWN WILL BE SAVED ON UNIT   52 AT END OF TIME STEP  90, STRESS PERIOD    2
1
  VOLUMETRIC BUDGET FOR ENTIRE MODEL AT END OF TIME STEP 90 IN STRESS PERIOD   2
  ------------------------------------------------------------------------------

     CUMULATIVE VOLUMES      L**3       RATES FOR THIS TIME STEP      L**3/T
     ------------------                 ------------------------

           IN:                                      IN:
           ---                                      ---
             STORAGE =       43056.9961               STORAGE =         430.8690
       CONSTANT HEAD =       35557.7305         CONSTANT HEAD =         428.6336
               WELLS =           0.0000                 WELLS =           0.0000

            TOTAL IN =       78614.7266              TOTAL IN =         859.5026

          OUT:                                     OUT:
          ----                                     ----
             STORAGE =       1.1143E-02               STORAGE =           0.0000
       CONSTANT HEAD =       33614.7070         CONSTANT HEAD =         359.5025
               WELLS =       45000.0000                 WELLS =         500.0000

           TOTAL OUT =       78614.7188             TOTAL OUT =         859.5025

            IN - OUT =       7.8125E-03              IN - OUT =       6.1035E-05

 PERCENT DISCREPANCY =           0.00     PERCENT DISCREPANCY =           0.00






          TIME SUMMARY AT END OF TIME STEP  90 IN STRESS PERIOD    2
                    SECONDS     MINUTES      HOURS       DAYS        YEARS
                    -----------------------------------------------------------
   TIME STEP LENGTH  86400.      1440.0      24.000      1.0000     2.73785E-03
 STRESS PERIOD TIME 7.77600E+06 1.29600E+05  2160.0      90.000     0.24641    
         TOTAL TIME 7.86240E+06 1.31040E+05  2184.0      91.000     0.24914    
1
 
 SOLVING FOR HEAD 

 OUTPUT CONTROL FOR STRESS PERIOD    2   TIME STEP  91
    SAVE HEAD FOR ALL LAYERS
    SAVE DRAWDOWN FOR ALL LAYERS
    SAVE BUDGET
    PRINT HEAD FOR ALL LAYERS
    PRINT BUDGET
 UBDSV1 SAVING "         STORAGE" ON UNIT  53 AT TIME STEP 91, STRESS PERIOD   2
 UBDSV2 SAVING "   CONSTANT HEAD" ON UNIT  53 AT TIME STEP 91, STRESS PERIOD   2
 UBDSV1 SAVING "FLOW RIGHT FACE " ON UNIT  53 AT TIME STEP 91, STRESS PERIOD   2
 UBDSV1 SAVING "FLOW FRONT FACE " ON UNIT  53 AT TIME STEP 91, STRESS PERIOD   2
1
              HEAD IN LAYER   1 AT END OF TIME STEP  91 IN STRESS PERIOD    2
  ---------------------------------------------------------------------------

            1           2           3           4           5           6           7           8           9          10
           11          12          13          14          15          16          17          18          19          20
           21          22          23          24          25          26          27          28          29          30
           31          32          33          34          35          36          37          38          39          40
           41          42          43          44          45          46          47          48          49          50
 ........................................................................................................................
   1    10.00       9.949       9.898       9.838       9.791       9.751       9.698       9.625       9.545       9.471    
        9.309       9.106       8.956       8.790       8.613       8.434       8.268       8.078       7.824       7.572    
        7.399       7.203       6.946       6.684       6.451       6.249       5.962       5.701       5.517       5.326    
        5.163       5.059       4.949       4.825       4.706       4.560       4.402       4.189       3.946       3.678    
        3.332       2.978       2.512       2.001       1.615       1.337       1.129      0.8903      0.5228       0.000    
   2    10.00       9.943       9.889       9.838       9.798       9.760       9.701       9.626       9.552       9.453    
        9.294       9.113       8.944       8.793       8.629       8.444       8.247       8.050       7.814       7.559    
        7.372       7.211       6.935       6.652       6.445       6.216       5.938       5.690       5.478       5.297    
        5.160       5.066       4.973       4.841       4.702       4.556       4.375       4.177       3.940       3.634    
        3.311       3.011       2.522       2.014       1.673       1.425       1.186      0.9196      0.5554       0.000    
   3    10.00       9.934       9.889       9.853       9.815       9.775       9.712       9.623       9.533       9.425    
        9.281       9.120       8.957       8.804       8.608       8.376       8.183       8.014       7.796       7.572    
        7.381       7.150       6.876       6.627       6.401       6.145       5.877       5.631       5.413       5.281    
        5.171       5.081       4.988       4.843       4.696       4.541       4.361       4.139       3.874       3.640    
        3.355       2.946       2.469       2.106       1.816       1.529       1.235      0.9321      0.5266       0.000    
   4    10.00       9.934       9.894       9.862       9.836       9.793       9.720       9.617       9.511       9.403    
        9.265       9.120       8.958       8.764       8.523       8.307       8.169       7.978       7.767       7.593    
        7.328       7.033       6.793       6.571       6.353       6.045       5.748       5.550       5.406       5.294    
        5.196       5.102       5.000       4.830       4.650       4.508       4.318       4.087       3.863       3.660    
        3.336       2.884       2.525       2.221       1.910       1.585       1.231      0.8771      0.4498       0.000    
   5    10.00       9.940       9.902       9.871       9.847       9.803       9.725       9.608       9.489       9.381    
        9.263       9.114       8.904       8.677       8.472       8.302       8.129       7.950       7.753       7.505    
        7.196       6.953       6.754       6.529       6.247       5.926       5.684       5.545       5.427       5.313    
        5.200       5.084       4.968       4.802       4.618       4.447       4.276       4.097       3.894       3.627    
        3.260       2.917       2.612       2.305       1.967       1.588       1.143      0.7378      0.3822       0.000    
   6    10.00       9.949       9.913       9.882       9.850       9.801       9.718       9.590       9.486       9.370    
        9.238       9.052       8.821       8.632       8.443       8.248       8.070       7.910       7.689       7.405    
        7.131       6.900       6.694       6.415       6.109       5.868       5.674       5.545       5.411       5.292    
        5.192       5.067       4.921       4.750       4.570       4.424       4.278       4.116       3.904       3.616    
        3.297       2.967       2.656       2.346       1.980       1.522       1.044      0.6930      0.3569       0.000    
   7    10.00       9.956       9.924       9.892       9.856       9.798       9.686       9.563       9.455       9.310    
        9.174       8.974       8.764       8.569       8.373       8.173       8.001       7.852       7.596       7.295    
        7.046       6.809       6.580       6.310       6.051       5.833       5.663       5.505       5.360       5.271    
        5.169       5.028       4.874       4.705       4.552       4.423       4.286       4.122       3.906       3.646    
        3.331       2.992       2.670       2.329       1.968       1.488      0.9972      0.6593      0.3122       0.000    
   8    10.00       9.964       9.935       9.899       9.858       9.763       9.626       9.509       9.373       9.235    
        9.083       8.878       8.698       8.498       8.279       8.081       7.932       7.754       7.509       7.217    
        6.927       6.710       6.520       6.241       5.970       5.776       5.583       5.411       5.315       5.227    
        5.103       4.963       4.834       4.688       4.533       4.401       4.297       4.174       3.966       3.669    
        3.324       3.025       2.725       2.330       1.928       1.392      0.9231      0.6453      0.2987       0.000    
   9    10.00       9.971       9.939       9.898       9.828       9.702       9.555       9.417       9.298       9.155    
        8.975       8.793       8.613       8.420       8.192       8.008       7.867       7.655       7.413       7.112    
        6.862       6.645       6.372       6.084       5.855       5.681       5.490       5.349       5.256       5.154    
        5.042       4.917       4.796       4.669       4.536       4.415       4.315       4.206       3.991       3.670    
        3.355       3.091       2.777       2.397       1.803       1.198      0.8789      0.5452      0.2080       0.000    
  10    10.00       9.971       9.937       9.880       9.771       9.621       9.457       9.350       9.236       9.066    
        8.909       8.728       8.549       8.338       8.127       7.961       7.768       7.550       7.293       7.048    
        6.802       6.466       6.184       5.958       5.765       5.608       5.430       5.290       5.196       5.115    
        4.999       4.864       4.757       4.641       4.524       4.443       4.346       4.219       3.973       3.656    
        3.412       3.181       2.822       2.250       1.561       1.123      0.7966      0.4866      0.2428       0.000    
  11    10.00       9.971       9.926       9.836       9.714       9.545       9.400       9.309       9.173       9.028    
        8.877       8.686       8.470       8.244       8.066       7.886       7.705       7.468       7.218       6.978    
        6.621       6.297       6.074       5.872       5.686       5.511       5.341       5.233       5.158       5.077    
        4.943       4.818       4.732       4.630       4.538       4.449       4.337       4.200       3.969       3.718    
        3.462       3.162       2.770       2.139       1.495       1.055      0.7456      0.5659      0.3128       0.000    
  12    10.00       9.969       9.904       9.789       9.628       9.460       9.344       9.254       9.134       9.003    
        8.836       8.633       8.415       8.215       8.034       7.835       7.626       7.382       7.127       6.796    
        6.443       6.199       5.980       5.774       5.567       5.394       5.277       5.199       5.101       4.992    
        4.872       4.784       4.709       4.631       4.552       4.461       4.344       4.180       3.968       3.743    
        3.469       3.142       2.606       1.895       1.347       1.038      0.8270      0.6002      0.3424       0.000    
  13    10.00       9.958       9.858       9.699       9.531       9.386       9.292       9.212       9.110       8.983    
        8.807       8.593       8.394       8.234       8.023       7.778       7.533       7.269       6.983       6.660    
        6.351       6.086       5.848       5.633       5.434       5.310       5.239       5.124       4.997       4.899    
        4.825       4.759       4.691       4.628       4.552       4.474       4.369       4.183       3.968       3.703    
        3.387       2.973       2.350       1.775       1.378       1.114      0.8688      0.6014      0.2973       0.000    
  14    10.00       9.922       9.779       9.604       9.447       9.333       9.270       9.196       9.098       8.957    
        8.762       8.579       8.416       8.248       8.008       7.717       7.454       7.155       6.838       6.501    
        6.202       5.937       5.702       5.490       5.338       5.252       5.164       5.022       4.916       4.845    
        4.794       4.730       4.675       4.616       4.548       4.487       4.363       4.171       3.946       3.614    
        3.243       2.755       2.277       1.859       1.465       1.156      0.8838      0.6017      0.2682       0.000    
  15    10.00       9.855       9.695       9.538       9.412       9.324       9.254       9.184       9.086       8.955    
        8.782       8.604       8.441       8.202       7.918       7.638       7.346       7.037       6.660       6.302    
        6.025       5.769       5.550       5.391       5.277       5.188       5.076       4.945       4.859       4.810    
        4.750       4.700       4.659       4.602       4.540       4.473       4.340       4.160       3.874       3.517    
        3.134       2.698       2.313       1.883       1.552       1.224      0.8949      0.5961      0.2448       0.000    
  16    10.00       9.830       9.656       9.512       9.404       9.324       9.251       9.187       9.092       8.955    
        8.791       8.620       8.417       8.111       7.799       7.566       7.278       6.863       6.434       6.104    
        5.822       5.610       5.431       5.297       5.171       5.092       4.969       4.863       4.800       4.743    
        4.701       4.672       4.629       4.577       4.521       4.443       4.320       4.102       3.791       3.470    
        3.145       2.729       2.298       1.920       1.609       1.265      0.8927      0.5347      0.2014       0.000    
  17    10.00       9.808       9.632       9.516       9.420       9.338       9.268       9.194       9.091       8.963    
        8.809       8.592       8.312       7.982       7.720       7.499       7.143       6.676       6.243       5.926    
        5.702       5.466       5.268       5.124       5.022       4.919       4.813       4.750       4.699       4.673    
        4.661       4.634       4.590       4.539       4.480       4.395       4.251       4.060       3.813       3.480    
        3.113       2.675       2.278       1.945       1.627       1.274      0.9117      0.5572      0.2358       0.000    
  18    10.00       9.796       9.631       9.532       9.444       9.365       9.295       9.206       9.103       8.966    
        8.781       8.523       8.211       7.931       7.675       7.349       6.936       6.510       6.129       5.818    
        5.542       5.240       5.071       4.951       4.862       4.745       4.678       4.623       4.592       4.604    
        4.604       4.580       4.537       4.480       4.419       4.331       4.196       4.043       3.831       3.526    
        3.051       2.587       2.263       1.947       1.677       1.307      0.9077      0.5472      0.2360       0.000    
  19    10.00       9.805       9.667       9.564       9.471       9.392       9.309       9.226       9.131       8.971    
        8.753       8.477       8.169       7.857       7.517       7.163       6.783       6.373       5.989       5.660    
        5.339       5.079       4.944       4.853       4.725       4.621       4.565       4.514       4.508       4.515    
        4.526       4.516       4.464       4.414       4.367       4.300       4.176       4.011       3.798       3.441    
        2.964       2.571       2.250       1.940       1.638       1.255      0.8731      0.5445      0.2569       0.000    
  20    10.00       9.816       9.698       9.608       9.517       9.423       9.325       9.235       9.140       8.977    
        8.739       8.452       8.093       7.688       7.297       7.010       6.628       6.190       5.854       5.529    
        5.244       5.028       4.865       4.725       4.562       4.490       4.454       4.429       4.435       4.438    
        4.446       4.427       4.388       4.363       4.328       4.263       4.119       3.955       3.713       3.313    
        2.903       2.591       2.221       1.868       1.537       1.160      0.8759      0.5411      0.2402       0.000    
  21    10.00       9.842       9.737       9.645       9.546       9.456       9.348       9.250       9.146       8.961    
        8.704       8.351       7.903       7.430       7.070       6.809       6.452       6.133       5.819       5.468    
        5.197       4.959       4.755       4.489       4.353       4.317       4.260       4.301       4.337       4.335    
        4.332       4.307       4.308       4.300       4.275       4.189       4.052       3.911       3.559       3.144    
        2.840       2.502       2.124       1.794       1.444       1.113      0.7932      0.4766      0.2397       0.000    
  22    10.00       9.876       9.765       9.666       9.570       9.484       9.361       9.234       9.113       8.921    
        8.606       8.162       7.657       7.216       6.908       6.638       6.367       6.137       5.791       5.447    
        5.162       4.821       4.453       4.176       4.075       3.974       3.988       4.095       4.134       4.154    
        4.173       4.173       4.205       4.230       4.208       4.123       3.991       3.729       3.329       3.064    
        2.737       2.373       2.033       1.716       1.417       1.025      0.6883      0.4567      0.2570       0.000    
  23    10.00       9.878       9.771       9.681       9.580       9.466       9.326       9.211       9.104       8.863    
        8.476       7.999       7.540       7.156       6.841       6.613       6.358       6.056       5.726       5.452    
        5.055       4.555       4.162       3.881       3.468       3.466       3.687       3.807       3.895       3.982    
        4.021       4.056       4.098       4.137       4.119       4.036       3.843       3.546       3.225       2.900    
        2.586       2.285       1.957       1.708       1.330      0.9313      0.6692      0.4390      0.2282       0.000    
  24    10.00       9.904       9.783       9.665       9.548       9.418       9.291       9.193       9.073       8.788    
        8.347       7.898       7.518       7.182       6.881       6.582       6.271       5.998       5.736       5.414    
        4.940       4.445       3.978       3.128       2.224       2.748       3.251       3.544       3.709       3.845    
        3.919       3.969       4.019       4.036       4.016       3.907       3.693       3.453       3.103       2.759    
        2.515       2.226       1.916       1.597       1.191      0.8637      0.6431      0.4109      0.1814       0.000    
  25    10.00       9.896       9.755       9.611       9.473       9.355       9.259       9.160       9.011       8.716    
        8.254       7.835       7.544       7.230       6.881       6.571       6.280       6.041       5.797       5.382    
        4.840       4.354       3.607       2.230     -0.6417       2.123       2.919       3.385       3.630       3.772    
        3.858       3.916       3.958       3.964       3.930       3.806       3.578       3.296       3.012       2.725    
        2.447       2.135       1.782       1.444       1.059      0.7921      0.6393      0.3987      0.1479       0.000    
  26    10.00       9.869       9.689       9.526       9.416       9.320       9.225       9.103       8.928       8.564    
        8.135       7.842       7.562       7.250       6.923       6.625       6.350       6.111       5.805       5.363    
        4.886       4.349       3.694       2.947       2.262       2.620       3.092       3.419       3.619       3.751    
        3.832       3.892       3.918       3.912       3.857       3.704       3.447       3.219       2.993       2.684    
        2.397       2.044       1.639       1.275      0.9611      0.7738      0.6036      0.3544      0.1509       0.000    
  27    10.00       9.841       9.649       9.496       9.404       9.279       9.153       9.000       8.766       8.422    
        8.118       7.859       7.575       7.270       6.949       6.712       6.521       6.198       5.810       5.360    
        4.955       4.564       4.035       3.541       3.151       3.206       3.386       3.546       3.672       3.766    
        3.851       3.900       3.908       3.881       3.802       3.625       3.419       3.220       2.954       2.664    
        2.368       1.941       1.477       1.135      0.9165      0.7601      0.5731      0.3741      0.1805       0.000    
  28    10.00       9.820       9.679       9.509       9.351       9.198       9.059       8.879       8.646       8.379    
        8.129       7.898       7.616       7.276       6.990       6.797       6.584       6.229       5.780       5.383    
        5.094       4.800       4.382       3.995       3.744       3.659       3.650       3.698       3.779       3.857    
        3.912       3.924       3.916       3.867       3.760       3.598       3.431       3.194       2.917       2.624    
        2.260       1.858       1.398       1.059      0.9060      0.7565      0.5903      0.3904      0.1811       0.000    
  29    10.00       9.826       9.651       9.471       9.282       9.135       8.977       8.777       8.581       8.369    
        8.146       7.917       7.643       7.356       7.109       6.881       6.597       6.204       5.794       5.484    
        5.237       4.977       4.632       4.285       4.080       3.967       3.896       3.894       3.933       3.959    
        3.963       3.958       3.930       3.860       3.734       3.592       3.435       3.212       2.905       2.532    
        2.199       1.771       1.310       1.044      0.9088      0.7616      0.5857      0.3812      0.1897       0.000    
  30    10.00       9.801       9.625       9.409       9.217       9.082       8.914       8.738       8.586       8.396    
        8.168       7.921       7.672       7.442       7.222       6.965       6.604       6.238       5.909       5.611    
        5.397       5.139       4.823       4.522       4.275       4.176       4.110       4.086       4.063       4.041    
        4.016       3.992       3.944       3.851       3.733       3.618       3.459       3.172       2.790       2.407    
        2.066       1.670       1.319       1.073      0.9296      0.7634      0.5752      0.3994      0.1961       0.000    
  31    10.00       9.775       9.572       9.365       9.192       9.052       8.893       8.737       8.587       8.403    
        8.178       7.930       7.714       7.525       7.319       7.030       6.673       6.353       6.091       5.825    
        5.596       5.303       4.991       4.737       4.485       4.326       4.262       4.199       4.154       4.107    
        4.074       4.024       3.955       3.861       3.745       3.614       3.362       3.041       2.720       2.343    
        2.019       1.624       1.280       1.101      0.9470      0.7902      0.5944      0.3998      0.1896       0.000    
  32    10.00       9.758       9.540       9.363       9.217       9.077       8.911       8.734       8.553       8.379    
        8.159       7.945       7.753       7.544       7.355       7.110       6.831       6.589       6.318       6.041    
        5.809       5.535       5.220       4.945       4.685       4.458       4.373       4.291       4.227       4.161    
        4.113       4.063       3.970       3.849       3.738       3.556       3.243       2.937       2.652       2.306    
        1.928       1.557       1.303       1.163      0.9951      0.7970      0.5898      0.3797      0.1895       0.000    
  33    10.00       9.751       9.564       9.423       9.277       9.115       8.916       8.720       8.526       8.328    
        8.146       7.966       7.777       7.578       7.367       7.177       6.973       6.766       6.543       6.273    
        6.002       5.745       5.479       5.157       4.836       4.579       4.451       4.371       4.292       4.208    
        4.148       4.079       3.977       3.858       3.695       3.442       3.119       2.858       2.580       2.176    
        1.829       1.583       1.379       1.213       1.021      0.8125      0.5587      0.3341      0.1506       0.000    
  34    10.00       9.774       9.621       9.488       9.327       9.129       8.920       8.692       8.478       8.314    
        8.149       7.985       7.815       7.610       7.424       7.240       7.063       6.898       6.685       6.411    
        6.155       5.921       5.657       5.323       4.972       4.685       4.518       4.425       4.334       4.241    
        4.160       4.086       3.983       3.836       3.636       3.325       3.008       2.767       2.436       2.076    
        1.859       1.695       1.498       1.284       1.031      0.7372      0.4517      0.2677      0.1111       0.000    
  35    10.00       9.811       9.674       9.540       9.368       9.145       8.907       8.654       8.452       8.310    
        8.200       8.036       7.847       7.630       7.432       7.302       7.172       7.002       6.783       6.521    
        6.276       6.045       5.801       5.429       5.033       4.760       4.578       4.468       4.363       4.258    
        4.175       4.085       3.964       3.775       3.469       3.143       2.928       2.673       2.331       2.111    
        1.958       1.771       1.573       1.364       1.044      0.6275      0.3474      0.2285      0.1160       0.000    
  36    10.00       9.834       9.715       9.587       9.405       9.141       8.851       8.614       8.468       8.358    
        8.210       8.024       7.852       7.660       7.486       7.356       7.233       7.084       6.910       6.668    
        6.415       6.169       5.871       5.475       5.084       4.807       4.633       4.505       4.378       4.267    
        4.176       4.061       3.872       3.593       3.313       3.082       2.877       2.610       2.332       2.184    
        2.028       1.860       1.660       1.390      0.9537      0.5293      0.3267      0.2092      0.1076       0.000    
  37    10.00       9.852       9.760       9.622       9.381       9.094       8.839       8.653       8.532       8.401    
        8.210       8.011       7.863       7.698       7.536       7.412       7.300       7.161       6.979       6.771    
        6.563       6.296       5.927       5.554       5.185       4.873       4.666       4.508       4.394       4.272    
        4.153       3.989       3.710       3.452       3.249       3.049       2.834       2.621       2.420       2.253    
        2.102       1.913       1.686       1.332      0.8762      0.5118      0.3068      0.1951      9.7841E-02   0.000    
  38    10.00       9.874       9.764       9.614       9.365       9.069       8.853       8.716       8.591       8.438    
        8.236       8.027       7.882       7.730       7.570       7.447       7.350       7.230       7.053       6.872    
        6.681       6.381       5.965       5.564       5.207       4.905       4.683       4.508       4.394       4.281    
        4.114       3.847       3.595       3.426       3.222       3.022       2.865       2.681       2.496       2.335    
        2.156       1.900       1.611       1.226      0.7725      0.4922      0.3463      0.2158      9.6850E-02   0.000    
  39    10.00       9.873       9.749       9.592       9.352       9.085       8.890       8.768       8.617       8.449    
        8.286       8.075       7.908       7.766       7.611       7.481       7.373       7.257       7.115       6.951    
        6.735       6.420       5.997       5.550       5.185       4.907       4.658       4.481       4.385       4.281    
        4.037       3.749       3.582       3.389       3.197       3.051       2.918       2.750       2.569       2.417    
        2.158       1.794       1.453       1.036      0.6914      0.5341      0.3978      0.2590      0.1333       0.000    
  40    10.00       9.864       9.755       9.596       9.375       9.152       8.963       8.803       8.624       8.470    
        8.348       8.145       7.936       7.791       7.648       7.503       7.384       7.292       7.169       6.981    
        6.738       6.380       5.953       5.536       5.160       4.873       4.600       4.458       4.373       4.235    
        4.014       3.786       3.560       3.355       3.217       3.088       2.961       2.804       2.636       2.437    
        2.087       1.689       1.318      0.9796      0.7428      0.5805      0.4446      0.3139      0.1541       0.000    
  41    10.00       9.883       9.796       9.642       9.416       9.184       9.005       8.863       8.688       8.504    
        8.360       8.178       7.986       7.849       7.684       7.510       7.406       7.310       7.157       6.956    
        6.709       6.364       5.939       5.530       5.155       4.776       4.520       4.439       4.349       4.245    
        4.064       3.791       3.561       3.396       3.255       3.139       2.999       2.847       2.673       2.365    
        1.954       1.565       1.241      0.9908      0.7857      0.6349      0.4894      0.3459      0.1822       0.000    
  42    10.00       9.913       9.817       9.670       9.477       9.257       9.056       8.909       8.753       8.554    
        8.371       8.197       8.036       7.905       7.733       7.547       7.424       7.296       7.130       6.906    
        6.628       6.254       5.885       5.482       4.997       4.654       4.512       4.449       4.371       4.255    
        4.045       3.806       3.587       3.419       3.305       3.180       3.055       2.890       2.615       2.206    
        1.846       1.554       1.272      0.9878      0.7970      0.6689      0.5291      0.3607      0.2002       0.000    
  43    10.00       9.932       9.830       9.680       9.491       9.310       9.131       8.969       8.779       8.576    
        8.408       8.234       8.075       7.954       7.796       7.590       7.429       7.284       7.058       6.774    
        6.501       6.143       5.799       5.343       4.883       4.652       4.538       4.464       4.388       4.267    
        4.067       3.847       3.636       3.469       3.358       3.234       3.071       2.838       2.436       2.072    
        1.846       1.586       1.289      0.9932      0.7907      0.6719      0.5640      0.3908      0.1831       0.000    
  44    10.00       9.925       9.839       9.684       9.514       9.384       9.207       8.988       8.776       8.607    
        8.441       8.269       8.130       8.004       7.822       7.608       7.425       7.251       6.986       6.696    
        6.369       6.009       5.645       5.188       4.839       4.665       4.568       4.503       4.419       4.268    
        4.061       3.884       3.697       3.541       3.428       3.263       3.046       2.712       2.300       2.056    
        1.849       1.578       1.280       1.010      0.8026      0.6751      0.5652      0.3833      0.1689       0.000    
  45    10.00       9.910       9.808       9.685       9.561       9.397       9.214       9.010       8.798       8.631    
        8.461       8.306       8.184       8.044       7.848       7.620       7.414       7.216       6.929       6.587    
        6.209       5.825       5.432       5.092       4.848       4.700       4.605       4.536       4.433       4.308    
        4.129       3.927       3.760       3.601       3.444       3.268       3.029       2.671       2.312       2.027    
        1.789       1.533       1.254       1.011      0.8295      0.7232      0.5587      0.3326      0.1517       0.000    
  46    10.00       9.892       9.787       9.689       9.551       9.366       9.190       9.024       8.818       8.640    
        8.491       8.346       8.224       8.060       7.853       7.650       7.431       7.173       6.862       6.489    
        6.042       5.658       5.342       5.081       4.895       4.764       4.648       4.556       4.475       4.335    
        4.146       3.972       3.809       3.629       3.472       3.301       3.033       2.620       2.240       1.986    
        1.761       1.514       1.250       1.036      0.8943      0.7575      0.5078      0.2496      0.1085       0.000    
  47    10.00       9.886       9.780       9.646       9.487       9.335       9.185       9.006       8.819       8.660    
        8.524       8.395       8.227       8.049       7.864       7.668       7.432       7.130       6.837       6.384    
        5.895       5.593       5.319       5.114       4.941       4.814       4.699       4.586       4.491       4.348    
        4.151       3.979       3.817       3.647       3.508       3.304       2.931       2.559       2.240       1.968    
        1.770       1.536       1.300       1.093      0.9175      0.6967      0.4190      0.2190      9.1198E-02   0.000    
  48    10.00       9.873       9.747       9.604       9.460       9.326       9.174       9.010       8.837       8.682    
        8.543       8.395       8.213       8.030       7.849       7.656       7.431       7.147       6.781       6.330    
        5.905       5.595       5.327       5.139       4.999       4.844       4.728       4.634       4.516       4.323    
        4.130       3.963       3.813       3.686       3.506       3.236       2.880       2.543       2.240       1.999    
        1.786       1.562       1.350       1.115      0.8529      0.5675      0.3589      0.2129      9.6177E-02   0.000    
  49    10.00       9.863       9.725       9.585       9.467       9.329       9.167       9.007       8.868       8.706    
        8.541       8.356       8.177       8.024       7.818       7.631       7.444       7.127       6.765       6.405    
        5.956       5.610       5.344       5.179       5.015       4.848       4.758       4.670       4.485       4.252    
        4.086       3.952       3.842       3.678       3.469       3.228       2.870       2.532       2.295       2.039    
        1.787       1.582       1.355       1.079      0.7565      0.5067      0.3593      0.2319      0.1190       0.000    
  50    10.00       9.868       9.730       9.588       9.460       9.324       9.180       9.022       8.876       8.732    
        8.530       8.337       8.173       7.968       7.759       7.615       7.437       7.192       6.833       6.477    
        6.021       5.584       5.353       5.186       5.015       4.879       4.772       4.655       4.437       4.214    
        4.076       3.965       3.838       3.668       3.474       3.243       2.881       2.535       2.304       2.073    
        1.834       1.575       1.319       1.024      0.7056      0.5187      0.3868      0.2622      0.1581       0.000    

 HEAD WILL BE SAVED ON UNIT   51 AT END OF TIME STEP  91, STRESS PERIOD    2

 DRAWDOWN WILL BE SAVED ON UNIT   52 AT END OF TIME STEP  91, STRESS PERIOD    2
1
  VOLUMETRIC BUDGET FOR ENTIRE MODEL AT END OF TIME STEP 91 IN STRESS PERIOD   2
  ------------------------------------------------------------------------------

     CUMULATIVE VOLUMES      L**3       RATES FOR THIS TIME STEP      L**3/T
     ------------------                 ------------------------

           IN:                                      IN:
           ---                                      ---
             STORAGE =       43486.4492               STORAGE =         429.4512
       CONSTANT HEAD =       35987.3828         CONSTANT HEAD =         429.6529
               WELLS =           0.0000                 WELLS =           0.0000

            TOTAL IN =       79473.8281              TOTAL IN =         859.1041

          OUT:                                     OUT:
          ----                                     ----
             STORAGE =       1.1143E-02               STORAGE =           0.0000
       CONSTANT HEAD =       33973.8125         CONSTANT HEAD =         359.1042
               WELLS =       45500.0000                 WELLS =         500.0000

           TOTAL OUT =       79473.8203             TOTAL OUT =         859.1042

            IN - OUT =       7.8125E-03              IN - OUT =      -1.8311E-04

 PERCENT DISCREPANCY =           0.00     PERCENT DISCREPANCY =           0.00






          TIME SUMMARY AT END OF TIME STEP  91 IN STRESS PERIOD    2
                    SECONDS     MINUTES      HOURS       DAYS        YEARS
                    -----------------------------------------------------------
   TIME STEP LENGTH  86400.      1440.0      24.000      1.0000     2.73785E-03
 STRESS PERIOD TIME 7.86240E+06 1.31040E+05  2184.0      91.000     0.24914    
         TOTAL TIME 7.94880E+06 1.32480E+05  2208.0      92.000     0.25188    
1
 
 SOLVING FOR HEAD 

 OUTPUT CONTROL FOR STRESS PERIOD    2   TIME STEP  92
    SAVE HEAD FOR ALL LAYERS
    SAVE DRAWDOWN FOR ALL LAYERS
    SAVE BUDGET
    PRINT HEAD FOR ALL LAYERS
    PRINT BUDGET
 UBDSV1 SAVING "         STORAGE" ON UNIT  53 AT TIME STEP 92, STRESS PERIOD   2
 UBDSV2 SAVING "   CONSTANT HEAD" ON UNIT  53 AT TIME STEP 92, STRESS PERIOD   2
 UBDSV1 SAVING "FLOW RIGHT FACE " ON UNIT  53 AT TIME STEP 92, STRESS PERIOD   2
 UBDSV1 SAVING "FLOW FRONT FACE " ON UNIT  53 AT TIME STEP 92, STRESS PERIOD   2
1
              HEAD IN LAYER   1 AT END OF TIME STEP  92 IN STRESS PERIOD    2
  ---------------------------------------------------------------------------

            1           2           3           4           5           6           7           8           9          10
           11          12          13          14          15          16          17          18          19          20
           21          22          23          24          25          26          27          28          29          30
           31          32          33          34          35          36          37          38          39          40
           41          42          43          44          45          46          47          48          49          50
 ........................................................................................................................
   1    10.00       9.949       9.898       9.838       9.790       9.751       9.697       9.624       9.544       9.470    
        9.308       9.105       8.955       8.788       8.610       8.431       8.265       8.075       7.821       7.568    
        7.395       7.199       6.941       6.679       6.446       6.244       5.957       5.695       5.511       5.320    
        5.157       5.053       4.943       4.819       4.701       4.555       4.397       4.185       3.941       3.674    
        3.328       2.975       2.510       1.999       1.613       1.335       1.127      0.8894      0.5223       0.000    
   2    10.00       9.943       9.889       9.838       9.798       9.759       9.700       9.625       9.551       9.452    
        9.293       9.111       8.943       8.790       8.626       8.441       8.244       8.047       7.810       7.556    
        7.368       7.206       6.930       6.647       6.440       6.211       5.933       5.684       5.472       5.291    
        5.155       5.060       4.967       4.835       4.696       4.551       4.370       4.172       3.936       3.630    
        3.307       3.007       2.519       2.012       1.671       1.424       1.185      0.9187      0.5549       0.000    
   3    10.00       9.934       9.889       9.853       9.815       9.775       9.711       9.622       9.532       9.424    
        9.279       9.118       8.955       8.802       8.606       8.373       8.180       8.010       7.792       7.568    
        7.376       7.145       6.871       6.621       6.396       6.139       5.871       5.625       5.407       5.275    
        5.165       5.075       4.983       4.837       4.691       4.535       4.356       4.134       3.869       3.636    
        3.351       2.943       2.466       2.103       1.814       1.527       1.233      0.9311      0.5261       0.000    
   4    10.00       9.934       9.894       9.862       9.835       9.793       9.719       9.616       9.510       9.402    
        9.264       9.119       8.956       8.762       8.520       8.304       8.166       7.975       7.763       7.589    
        7.323       7.029       6.788       6.566       6.347       6.039       5.742       5.544       5.400       5.288    
        5.190       5.096       4.994       4.825       4.644       4.503       4.312       4.082       3.858       3.655    
        3.332       2.881       2.523       2.218       1.908       1.583       1.229      0.8762      0.4493       0.000    
   5    10.00       9.940       9.902       9.871       9.847       9.803       9.725       9.607       9.488       9.379    
        9.262       9.112       8.902       8.674       8.469       8.299       8.126       7.947       7.749       7.501    
        7.191       6.948       6.749       6.524       6.241       5.921       5.678       5.539       5.421       5.306    
        5.193       5.078       4.962       4.796       4.612       4.441       4.271       4.092       3.890       3.623    
        3.256       2.914       2.609       2.302       1.965       1.586       1.142      0.7370      0.3818       0.000    
   6    10.00       9.949       9.913       9.882       9.849       9.801       9.717       9.589       9.485       9.369    
        9.237       9.050       8.819       8.629       8.440       8.244       8.067       7.906       7.685       7.401    
        7.126       6.894       6.689       6.410       6.103       5.862       5.667       5.539       5.405       5.285    
        5.186       5.060       4.915       4.744       4.564       4.418       4.273       4.111       3.899       3.611    
        3.293       2.964       2.652       2.344       1.978       1.521       1.043      0.6922      0.3566       0.000    
   7    10.00       9.956       9.924       9.892       9.856       9.797       9.685       9.562       9.454       9.308    
        9.172       8.972       8.761       8.566       8.370       8.170       7.997       7.848       7.592       7.290    
        7.040       6.803       6.575       6.304       6.045       5.827       5.656       5.499       5.354       5.264    
        5.162       5.021       4.868       4.699       4.546       4.417       4.281       4.117       3.901       3.642    
        3.326       2.988       2.667       2.327       1.965       1.486      0.9961      0.6586      0.3119       0.000    
   8    10.00       9.964       9.935       9.899       9.858       9.763       9.625       9.508       9.371       9.233    
        9.081       8.875       8.696       8.495       8.276       8.078       7.928       7.750       7.505       7.211    
        6.921       6.704       6.514       6.235       5.963       5.769       5.576       5.404       5.308       5.220    
        5.096       4.956       4.827       4.682       4.526       4.395       4.291       4.168       3.960       3.664    
        3.320       3.021       2.722       2.327       1.925       1.390      0.9221      0.6446      0.2984       0.000    
   9    10.00       9.971       9.939       9.898       9.828       9.701       9.554       9.416       9.296       9.153    
        8.973       8.790       8.610       8.416       8.189       8.004       7.863       7.651       7.408       7.106    
        6.856       6.639       6.366       6.077       5.848       5.674       5.482       5.342       5.249       5.146    
        5.035       4.910       4.789       4.662       4.530       4.408       4.309       4.200       3.985       3.665    
        3.350       3.087       2.773       2.394       1.801       1.196      0.8779      0.5446      0.2077       0.000    
  10    10.00       9.971       9.937       9.880       9.771       9.620       9.456       9.348       9.234       9.064    
        8.907       8.725       8.546       8.334       8.122       7.957       7.764       7.545       7.287       7.043    
        6.796       6.459       6.177       5.950       5.758       5.600       5.422       5.282       5.189       5.108    
        4.992       4.857       4.749       4.634       4.517       4.437       4.339       4.213       3.967       3.651    
        3.407       3.177       2.818       2.247       1.559       1.122      0.7957      0.4860      0.2425       0.000    
  11    10.00       9.971       9.925       9.836       9.713       9.544       9.398       9.308       9.171       9.025    
        8.874       8.683       8.467       8.240       8.062       7.881       7.700       7.463       7.212       6.972    
        6.614       6.290       6.067       5.865       5.679       5.503       5.333       5.225       5.151       5.069    
        4.935       4.811       4.724       4.622       4.531       4.442       4.330       4.194       3.963       3.712    
        3.458       3.158       2.767       2.136       1.494       1.053      0.7447      0.5653      0.3124       0.000    
  12    10.00       9.968       9.904       9.789       9.627       9.459       9.343       9.252       9.132       9.001    
        8.834       8.630       8.411       8.211       8.030       7.830       7.621       7.376       7.121       6.790    
        6.436       6.192       5.973       5.766       5.559       5.386       5.269       5.191       5.093       4.984    
        4.864       4.777       4.701       4.623       4.545       4.454       4.337       4.174       3.962       3.738    
        3.464       3.138       2.602       1.893       1.346       1.036      0.8260      0.5995      0.3419       0.000    
  13    10.00       9.957       9.857       9.699       9.530       9.384       9.291       9.210       9.108       8.981    
        8.804       8.590       8.390       8.230       8.019       7.773       7.528       7.263       6.977       6.653    
        6.344       6.079       5.840       5.625       5.426       5.301       5.231       5.115       4.988       4.890    
        4.817       4.751       4.683       4.620       4.545       4.466       4.362       4.176       3.962       3.697    
        3.382       2.969       2.347       1.772       1.376       1.113      0.8677      0.6007      0.2970       0.000    
  14    10.00       9.922       9.778       9.603       9.446       9.331       9.268       9.194       9.095       8.955    
        8.759       8.576       8.412       8.244       8.003       7.712       7.448       7.149       6.832       6.494    
        6.194       5.929       5.694       5.482       5.329       5.244       5.155       5.013       4.907       4.836    
        4.785       4.722       4.667       4.608       4.540       4.479       4.355       4.164       3.940       3.608    
        3.238       2.751       2.273       1.856       1.463       1.155      0.8827      0.6010      0.2679       0.000    
  15    10.00       9.854       9.694       9.536       9.410       9.322       9.252       9.182       9.084       8.952    
        8.779       8.600       8.437       8.198       7.913       7.632       7.340       7.031       6.652       6.294    
        6.017       5.761       5.541       5.382       5.268       5.179       5.068       4.937       4.850       4.801    
        4.741       4.691       4.650       4.594       4.532       4.465       4.332       4.153       3.868       3.511    
        3.129       2.694       2.310       1.881       1.550       1.223      0.8937      0.5954      0.2445       0.000    
  16    10.00       9.830       9.655       9.511       9.402       9.322       9.249       9.185       9.089       8.952    
        8.788       8.616       8.413       8.106       7.794       7.560       7.272       6.856       6.426       6.096    
        5.813       5.601       5.422       5.288       5.163       5.083       4.960       4.854       4.791       4.734    
        4.692       4.663       4.621       4.568       4.513       4.435       4.313       4.094       3.785       3.464    
        3.140       2.725       2.294       1.918       1.607       1.263      0.8915      0.5340      0.2012       0.000    
  17    10.00       9.807       9.631       9.515       9.418       9.336       9.266       9.192       9.088       8.960    
        8.806       8.588       8.308       7.976       7.714       7.493       7.137       6.668       6.235       5.918    
        5.693       5.457       5.259       5.115       5.012       4.910       4.804       4.740       4.690       4.664    
        4.652       4.625       4.582       4.530       4.471       4.387       4.243       4.052       3.806       3.474    
        3.108       2.671       2.274       1.943       1.625       1.272      0.9105      0.5565      0.2355       0.000    
  18    10.00       9.796       9.630       9.530       9.442       9.363       9.293       9.204       9.101       8.963    
        8.777       8.519       8.207       7.926       7.669       7.342       6.929       6.502       6.121       5.810    
        5.533       5.231       5.061       4.941       4.852       4.735       4.668       4.613       4.582       4.595    
        4.595       4.571       4.528       4.472       4.411       4.322       4.188       4.036       3.824       3.520    
        3.046       2.582       2.260       1.945       1.675       1.306      0.9065      0.5465      0.2357       0.000    
  19    10.00       9.805       9.666       9.563       9.470       9.390       9.307       9.224       9.129       8.968    
        8.750       8.473       8.164       7.852       7.510       7.156       6.775       6.364       5.980       5.651    
        5.330       5.069       4.934       4.843       4.715       4.612       4.555       4.505       4.498       4.505    
        4.517       4.507       4.455       4.405       4.358       4.292       4.168       4.003       3.790       3.435    
        2.959       2.567       2.246       1.937       1.635       1.254      0.8720      0.5438      0.2566       0.000    
  20    10.00       9.815       9.697       9.607       9.516       9.422       9.323       9.233       9.138       8.974    
        8.736       8.447       8.088       7.682       7.291       7.003       6.620       6.181       5.845       5.520    
        5.234       5.019       4.856       4.716       4.552       4.480       4.444       4.420       4.426       4.428    
        4.436       4.417       4.378       4.354       4.319       4.254       4.111       3.947       3.705       3.306    
        2.898       2.587       2.218       1.865       1.535       1.158      0.8748      0.5404      0.2399       0.000    
  21    10.00       9.842       9.736       9.644       9.545       9.455       9.346       9.248       9.144       8.959    
        8.701       8.347       7.897       7.424       7.063       6.802       6.444       6.125       5.811       5.459    
        5.188       4.950       4.745       4.479       4.343       4.307       4.250       4.291       4.328       4.325    
        4.322       4.297       4.298       4.290       4.266       4.180       4.043       3.903       3.552       3.138    
        2.835       2.498       2.120       1.792       1.442       1.112      0.7922      0.4760      0.2394       0.000    
  22    10.00       9.876       9.765       9.665       9.569       9.483       9.359       9.232       9.110       8.918    
        8.602       8.157       7.651       7.209       6.900       6.630       6.359       6.129       5.783       5.438    
        5.153       4.811       4.443       4.166       4.065       3.964       3.978       4.085       4.124       4.144    
        4.162       4.163       4.195       4.221       4.199       4.114       3.982       3.721       3.322       3.059    
        2.732       2.369       2.030       1.713       1.415       1.023      0.6874      0.4561      0.2567       0.000    
  23    10.00       9.877       9.770       9.680       9.579       9.465       9.324       9.209       9.102       8.860    
        8.471       7.994       7.533       7.149       6.833       6.605       6.350       6.048       5.717       5.442    
        5.046       4.546       4.152       3.871       3.458       3.456       3.677       3.797       3.885       3.972    
        4.011       4.046       4.088       4.127       4.109       4.027       3.834       3.538       3.219       2.894    
        2.581       2.281       1.954       1.705       1.328      0.9300      0.6683      0.4384      0.2279       0.000    
  24    10.00       9.904       9.783       9.664       9.547       9.416       9.289       9.190       9.070       8.785    
        8.343       7.892       7.511       7.175       6.874       6.574       6.262       5.989       5.727       5.405    
        4.931       4.435       3.968       3.118       2.213       2.737       3.240       3.534       3.699       3.835    
        3.909       3.958       4.008       4.026       4.006       3.897       3.684       3.445       3.096       2.754    
        2.510       2.222       1.913       1.594       1.189      0.8625      0.6422      0.4103      0.1812       0.000    
  25    10.00       9.896       9.755       9.609       9.472       9.354       9.256       9.157       9.008       8.712    
        8.249       7.830       7.537       7.223       6.874       6.563       6.272       6.032       5.789       5.373    
        4.831       4.344       3.597       2.219     -0.6531       2.112       2.908       3.374       3.619       3.761    
        3.848       3.906       3.948       3.953       3.920       3.796       3.569       3.289       3.005       2.719    
        2.443       2.131       1.779       1.442       1.057      0.7910      0.6384      0.3981      0.1477       0.000    
  26    10.00       9.869       9.688       9.525       9.414       9.318       9.223       9.101       8.925       8.560    
        8.130       7.837       7.556       7.243       6.915       6.617       6.342       6.103       5.796       5.354    
        4.877       4.339       3.684       2.937       2.251       2.609       3.082       3.409       3.609       3.740    
        3.821       3.881       3.908       3.902       3.847       3.695       3.438       3.212       2.986       2.678    
        2.393       2.040       1.636       1.273      0.9597      0.7727      0.6027      0.3539      0.1507       0.000    
  27    10.00       9.840       9.648       9.495       9.402       9.277       9.151       8.997       8.763       8.418    
        8.113       7.854       7.569       7.263       6.942       6.705       6.513       6.189       5.801       5.351    
        4.946       4.555       4.025       3.531       3.140       3.196       3.375       3.535       3.662       3.755    
        3.840       3.890       3.898       3.871       3.792       3.615       3.410       3.212       2.947       2.658    
        2.363       1.938       1.475       1.134      0.9151      0.7590      0.5723      0.3736      0.1802       0.000    
  28    10.00       9.819       9.679       9.507       9.349       9.196       9.056       8.875       8.642       8.375    
        8.124       7.893       7.610       7.269       6.983       6.790       6.576       6.221       5.772       5.374    
        5.085       4.791       4.372       3.985       3.734       3.649       3.640       3.688       3.769       3.846    
        3.902       3.914       3.905       3.857       3.750       3.589       3.423       3.187       2.911       2.618    
        2.256       1.854       1.395       1.057      0.9046      0.7554      0.5895      0.3899      0.1809       0.000    
  29    10.00       9.826       9.650       9.469       9.280       9.132       8.974       8.774       8.577       8.364    
        8.142       7.912       7.637       7.349       7.102       6.873       6.589       6.195       5.786       5.475    
        5.227       4.968       4.622       4.275       4.070       3.957       3.886       3.883       3.923       3.949    
        3.953       3.947       3.920       3.850       3.725       3.583       3.426       3.205       2.898       2.527    
        2.195       1.768       1.308       1.043      0.9075      0.7605      0.5848      0.3807      0.1894       0.000    
  30    10.00       9.800       9.624       9.407       9.215       9.079       8.911       8.735       8.582       8.392    
        8.164       7.916       7.666       7.435       7.215       6.958       6.596       6.230       5.900       5.602    
        5.388       5.130       4.814       4.512       4.264       4.165       4.100       4.076       4.053       4.031    
        4.006       3.982       3.934       3.841       3.724       3.609       3.451       3.165       2.784       2.402    
        2.062       1.667       1.317       1.071      0.9283      0.7623      0.5744      0.3989      0.1958       0.000    
  31    10.00       9.775       9.571       9.363       9.190       9.049       8.890       8.734       8.583       8.398    
        8.173       7.925       7.709       7.519       7.313       7.023       6.666       6.345       6.083       5.817    
        5.587       5.293       4.982       4.727       4.475       4.316       4.252       4.189       4.144       4.097    
        4.064       4.015       3.945       3.852       3.736       3.605       3.355       3.034       2.714       2.338    
        2.016       1.621       1.278       1.099      0.9456      0.7891      0.5936      0.3992      0.1893       0.000    
  32    10.00       9.758       9.539       9.361       9.215       9.075       8.908       8.731       8.549       8.375    
        8.155       7.940       7.748       7.538       7.348       7.103       6.824       6.581       6.310       6.033    
        5.801       5.526       5.211       4.936       4.675       4.448       4.363       4.281       4.217       4.151    
        4.103       4.054       3.960       3.840       3.730       3.548       3.236       2.931       2.647       2.302    
        1.925       1.555       1.301       1.162      0.9937      0.7959      0.5890      0.3792      0.1893       0.000    
  33    10.00       9.751       9.563       9.421       9.275       9.112       8.913       8.717       8.523       8.324    
        8.141       7.961       7.772       7.572       7.361       7.171       6.966       6.759       6.536       6.265    
        5.994       5.737       5.470       5.148       4.827       4.569       4.441       4.362       4.282       4.199    
        4.139       4.070       3.969       3.850       3.687       3.435       3.113       2.852       2.575       2.172    
        1.826       1.581       1.377       1.212       1.020      0.8113      0.5579      0.3337      0.1504       0.000    
  34    10.00       9.773       9.620       9.487       9.325       9.126       8.917       8.688       8.475       8.309    
        8.145       7.980       7.810       7.604       7.418       7.234       7.057       6.891       6.678       6.403    
        6.147       5.913       5.648       5.315       4.963       4.675       4.509       4.416       4.325       4.232    
        4.152       4.077       3.974       3.827       3.629       3.319       3.002       2.762       2.432       2.073    
        1.856       1.693       1.496       1.283       1.030      0.7362      0.4511      0.2674      0.1109       0.000    
  35    10.00       9.811       9.673       9.538       9.366       9.143       8.904       8.651       8.448       8.306    
        8.196       8.031       7.842       7.625       7.426       7.296       7.165       6.996       6.776       6.513    
        6.269       6.037       5.793       5.421       5.024       4.751       4.569       4.459       4.355       4.249    
        4.166       4.077       3.956       3.767       3.462       3.137       2.923       2.669       2.328       2.108    
        1.955       1.769       1.571       1.363       1.043      0.6267      0.3469      0.2282      0.1159       0.000    
  36    10.00       9.834       9.714       9.585       9.403       9.139       8.848       8.611       8.465       8.354    
        8.206       8.019       7.847       7.655       7.480       7.350       7.227       7.077       6.903       6.661    
        6.407       6.161       5.863       5.467       5.075       4.798       4.624       4.497       4.370       4.258    
        4.168       4.053       3.865       3.586       3.307       3.077       2.873       2.606       2.329       2.181    
        2.025       1.858       1.657       1.388      0.9524      0.5286      0.3263      0.2090      0.1074       0.000    
  37    10.00       9.851       9.760       9.621       9.379       9.092       8.836       8.650       8.529       8.397    
        8.205       8.007       7.858       7.692       7.531       7.407       7.294       7.155       6.972       6.764    
        6.556       6.288       5.919       5.545       5.176       4.865       4.658       4.500       4.386       4.264    
        4.146       3.982       3.704       3.446       3.244       3.045       2.830       2.618       2.416       2.250    
        2.099       1.911       1.684       1.330      0.8751      0.5112      0.3065      0.1948      9.7727E-02   0.000    
  38    10.00       9.874       9.764       9.613       9.363       9.067       8.850       8.713       8.587       8.434    
        8.232       8.023       7.877       7.725       7.564       7.441       7.344       7.224       7.047       6.865    
        6.674       6.373       5.958       5.556       5.200       4.898       4.676       4.501       4.387       4.274    
        4.108       3.841       3.590       3.421       3.218       3.018       2.861       2.678       2.493       2.332    
        2.153       1.897       1.609       1.224      0.7717      0.4916      0.3460      0.2156      9.6744E-02   0.000    
  39    10.00       9.873       9.748       9.591       9.350       9.082       8.887       8.765       8.614       8.445    
        8.282       8.070       7.903       7.761       7.606       7.475       7.367       7.251       7.109       6.944    
        6.729       6.413       5.990       5.543       5.178       4.900       4.652       4.475       4.379       4.275    
        4.032       3.744       3.577       3.384       3.193       3.047       2.914       2.746       2.566       2.414    
        2.156       1.792       1.451       1.034      0.6907      0.5336      0.3974      0.2588      0.1331       0.000    
  40    10.00       9.864       9.755       9.595       9.374       9.150       8.960       8.800       8.621       8.467    
        8.344       8.141       7.931       7.786       7.643       7.497       7.379       7.287       7.164       6.975    
        6.732       6.374       5.947       5.530       5.154       4.867       4.594       4.453       4.367       4.230    
        4.009       3.782       3.555       3.351       3.213       3.085       2.957       2.800       2.632       2.434    
        2.085       1.687       1.317      0.9786      0.7421      0.5800      0.4442      0.3136      0.1540       0.000    
  41    10.00       9.883       9.796       9.641       9.414       9.182       9.003       8.860       8.685       8.501    
        8.356       8.174       7.982       7.844       7.679       7.505       7.401       7.305       7.151       6.951    
        6.704       6.359       5.933       5.524       5.150       4.771       4.515       4.434       4.345       4.240    
        4.059       3.787       3.557       3.392       3.252       3.136       2.995       2.844       2.670       2.362    
        1.952       1.563       1.240      0.9898      0.7849      0.6343      0.4889      0.3455      0.1820       0.000    
  42    10.00       9.913       9.817       9.670       9.476       9.256       9.053       8.907       8.751       8.551    
        8.367       8.193       8.032       7.901       7.729       7.542       7.419       7.291       7.125       6.901    
        6.623       6.249       5.880       5.477       4.992       4.650       4.508       4.444       4.366       4.250    
        4.040       3.802       3.583       3.416       3.301       3.177       3.051       2.887       2.612       2.204    
        1.844       1.553       1.271      0.9869      0.7963      0.6683      0.5287      0.3604      0.2000       0.000    
  43    10.00       9.932       9.830       9.680       9.490       9.309       9.130       8.966       8.777       8.574    
        8.405       8.231       8.072       7.951       7.792       7.586       7.425       7.279       7.054       6.769    
        6.496       6.138       5.794       5.339       4.879       4.648       4.534       4.460       4.384       4.263    
        4.063       3.843       3.632       3.465       3.355       3.231       3.068       2.835       2.434       2.070    
        1.844       1.585       1.287      0.9923      0.7900      0.6714      0.5635      0.3904      0.1830       0.000    
  44    10.00       9.925       9.839       9.684       9.513       9.382       9.205       8.987       8.774       8.605    
        8.438       8.266       8.126       8.001       7.819       7.604       7.421       7.247       6.982       6.692    
        6.365       6.005       5.642       5.184       4.835       4.661       4.565       4.499       4.415       4.264    
        4.057       3.880       3.693       3.537       3.425       3.259       3.043       2.709       2.297       2.054    
        1.847       1.576       1.279       1.009      0.8019      0.6746      0.5647      0.3830      0.1688       0.000    
  45    10.00       9.910       9.808       9.684       9.560       9.396       9.213       9.008       8.796       8.628    
        8.458       8.304       8.181       8.041       7.845       7.616       7.410       7.213       6.926       6.583    
        6.205       5.821       5.429       5.088       4.845       4.696       4.601       4.532       4.430       4.305    
        4.125       3.923       3.756       3.598       3.441       3.265       3.027       2.669       2.310       2.025    
        1.788       1.532       1.253       1.011      0.8289      0.7227      0.5583      0.3324      0.1515       0.000    
  46    10.00       9.892       9.787       9.688       9.550       9.365       9.189       9.023       8.816       8.638    
        8.488       8.344       8.222       8.058       7.850       7.648       7.428       7.170       6.859       6.485    
        6.039       5.654       5.338       5.077       4.891       4.761       4.644       4.552       4.471       4.331    
        4.142       3.968       3.806       3.626       3.469       3.299       3.030       2.618       2.239       1.984    
        1.759       1.512       1.249       1.035      0.8937      0.7570      0.5074      0.2494      0.1084       0.000    
  47    10.00       9.886       9.779       9.645       9.486       9.335       9.184       9.004       8.817       8.658    
        8.522       8.393       8.224       8.047       7.862       7.665       7.429       7.127       6.834       6.381    
        5.892       5.590       5.316       5.111       4.938       4.810       4.695       4.583       4.488       4.345    
        4.148       3.976       3.814       3.644       3.506       3.301       2.929       2.557       2.239       1.966    
        1.769       1.534       1.299       1.092      0.9169      0.6962      0.4187      0.2188      9.1136E-02   0.000    
  48    10.00       9.873       9.746       9.604       9.459       9.325       9.173       9.009       8.836       8.680    
        8.541       8.393       8.211       8.028       7.847       7.654       7.429       7.144       6.779       6.327    
        5.902       5.592       5.324       5.136       4.996       4.840       4.724       4.630       4.513       4.320    
        4.127       3.960       3.810       3.683       3.503       3.234       2.878       2.541       2.239       1.998    
        1.785       1.561       1.349       1.115      0.8523      0.5672      0.3587      0.2127      9.6118E-02   0.000    
  49    10.00       9.862       9.724       9.585       9.467       9.328       9.166       9.006       8.866       8.705    
        8.540       8.354       8.175       8.022       7.816       7.629       7.441       7.124       6.762       6.402    
        5.954       5.607       5.341       5.175       5.012       4.845       4.755       4.667       4.482       4.249    
        4.083       3.949       3.839       3.676       3.467       3.225       2.868       2.531       2.293       2.037    
        1.786       1.581       1.354       1.078      0.7561      0.5064      0.3591      0.2318      0.1189       0.000    
  50    10.00       9.868       9.730       9.588       9.459       9.323       9.179       9.021       8.874       8.731    
        8.529       8.335       8.171       7.966       7.757       7.613       7.435       7.189       6.831       6.474    
        6.018       5.581       5.350       5.182       5.012       4.876       4.768       4.652       4.433       4.211    
        4.073       3.962       3.835       3.665       3.472       3.241       2.879       2.533       2.302       2.072    
        1.833       1.574       1.319       1.023      0.7052      0.5184      0.3866      0.2620      0.1580       0.000    

 HEAD WILL BE SAVED ON UNIT   51 AT END OF TIME STEP  92, STRESS PERIOD    2

 DRAWDOWN WILL BE SAVED ON UNIT   52 AT END OF TIME STEP  92, STRESS PERIOD    2
1
  VOLUMETRIC BUDGET FOR ENTIRE MODEL AT END OF TIME STEP 92 IN STRESS PERIOD   2
  ------------------------------------------------------------------------------

     CUMULATIVE VOLUMES      L**3       RATES FOR THIS TIME STEP      L**3/T
     ------------------                 ------------------------

           IN:                                      IN:
           ---                                      ---
             STORAGE =       43914.4805               STORAGE =         428.0325
       CONSTANT HEAD =       36418.0547         CONSTANT HEAD =         430.6701
               WELLS =           0.0000                 WELLS =           0.0000

            TOTAL IN =       80332.5312              TOTAL IN =         858.7026

          OUT:                                     OUT:
          ----                                     ----
             STORAGE =       1.1143E-02               STORAGE =           0.0000
       CONSTANT HEAD =       34332.5156         CONSTANT HEAD =         358.7020
               WELLS =       46000.0000                 WELLS =         500.0000

           TOTAL OUT =       80332.5234             TOTAL OUT =         858.7020

            IN - OUT =       7.8125E-03              IN - OUT =       5.4932E-04

 PERCENT DISCREPANCY =           0.00     PERCENT DISCREPANCY =           0.00






          TIME SUMMARY AT END OF TIME STEP  92 IN STRESS PERIOD    2
                    SECONDS     MINUTES      HOURS       DAYS        YEARS
                    -----------------------------------------------------------
   TIME STEP LENGTH  86400.      1440.0      24.000      1.0000     2.73785E-03
 STRESS PERIOD TIME 7.94880E+06 1.32480E+05  2208.0      92.000     0.25188    
         TOTAL TIME 8.03520E+06 1.33920E+05  2232.0      93.000     0.25462    
1
 
 SOLVING FOR HEAD 

 OUTPUT CONTROL FOR STRESS PERIOD    2   TIME STEP  93
    SAVE HEAD FOR ALL LAYERS
    SAVE DRAWDOWN FOR ALL LAYERS
    SAVE BUDGET
    PRINT HEAD FOR ALL LAYERS
    PRINT BUDGET
 UBDSV1 SAVING "         STORAGE" ON UNIT  53 AT TIME STEP 93, STRESS PERIOD   2
 UBDSV2 SAVING "   CONSTANT HEAD" ON UNIT  53 AT TIME STEP 93, STRESS PERIOD   2
 UBDSV1 SAVING "FLOW RIGHT FACE " ON UNIT  53 AT TIME STEP 93, STRESS PERIOD   2
 UBDSV1 SAVING "FLOW FRONT FACE " ON UNIT  53 AT TIME STEP 93, STRESS PERIOD   2
1
              HEAD IN LAYER   1 AT END OF TIME STEP  93 IN STRESS PERIOD    2
  ---------------------------------------------------------------------------

            1           2           3           4           5           6           7           8           9          10
           11          12          13          14          15          16          17          18          19          20
           21          22          23          24          25          26          27          28          29          30
           31          32          33          34          35          36          37          38          39          40
           41          42          43          44          45          46          47          48          49          50
 ........................................................................................................................
   1    10.00       9.949       9.898       9.837       9.790       9.750       9.697       9.623       9.543       9.469    
        9.307       9.103       8.953       8.786       8.608       8.428       8.262       8.071       7.817       7.564    
        7.391       7.195       6.936       6.674       6.441       6.239       5.951       5.690       5.506       5.314    
        5.151       5.047       4.938       4.814       4.696       4.549       4.392       4.180       3.937       3.670    
        3.324       2.972       2.507       1.997       1.612       1.334       1.126      0.8885      0.5218       0.000    
   2    10.00       9.943       9.889       9.838       9.798       9.759       9.700       9.624       9.551       9.451    
        9.292       9.109       8.941       8.788       8.624       8.438       8.241       8.044       7.807       7.552    
        7.364       7.202       6.926       6.642       6.435       6.206       5.927       5.678       5.466       5.285    
        5.149       5.054       4.962       4.830       4.691       4.546       4.365       4.167       3.931       3.626    
        3.304       3.004       2.517       2.010       1.670       1.422       1.183      0.9178      0.5543       0.000    
   3    10.00       9.934       9.888       9.853       9.814       9.774       9.711       9.621       9.531       9.423    
        9.278       9.116       8.953       8.799       8.603       8.370       8.177       8.007       7.788       7.564    
        7.372       7.141       6.867       6.616       6.391       6.134       5.865       5.619       5.401       5.269    
        5.159       5.069       4.977       4.832       4.685       4.530       4.351       4.129       3.865       3.632    
        3.348       2.939       2.464       2.101       1.812       1.526       1.232      0.9302      0.5255       0.000    
   4    10.00       9.934       9.894       9.862       9.835       9.792       9.719       9.615       9.509       9.400    
        9.262       9.117       8.954       8.759       8.517       8.301       8.162       7.971       7.759       7.584    
        7.319       7.024       6.783       6.561       6.342       6.033       5.736       5.538       5.393       5.282    
        5.184       5.090       4.988       4.819       4.639       4.497       4.307       4.077       3.854       3.651    
        3.328       2.878       2.520       2.216       1.906       1.582       1.228      0.8753      0.4489       0.000    
   5    10.00       9.939       9.902       9.870       9.846       9.802       9.724       9.606       9.487       9.378    
        9.260       9.110       8.900       8.672       8.467       8.296       8.122       7.943       7.745       7.496    
        7.186       6.943       6.743       6.518       6.235       5.915       5.672       5.533       5.415       5.300    
        5.187       5.072       4.956       4.791       4.606       4.435       4.265       4.086       3.885       3.618    
        3.252       2.910       2.606       2.300       1.963       1.585       1.141      0.7362      0.3814       0.000    
   6    10.00       9.949       9.913       9.882       9.849       9.800       9.717       9.589       9.484       9.368    
        9.235       9.048       8.816       8.626       8.437       8.241       8.063       7.903       7.681       7.396    
        7.121       6.889       6.684       6.404       6.097       5.856       5.661       5.533       5.398       5.279    
        5.180       5.054       4.909       4.738       4.558       4.413       4.267       4.106       3.894       3.607    
        3.289       2.960       2.649       2.341       1.975       1.519       1.042      0.6915      0.3562       0.000    
   7    10.00       9.956       9.924       9.891       9.856       9.797       9.685       9.561       9.453       9.307    
        9.171       8.970       8.759       8.563       8.367       8.166       7.993       7.844       7.587       7.285    
        7.035       6.798       6.569       6.298       6.039       5.820       5.650       5.492       5.347       5.258    
        5.156       5.015       4.861       4.693       4.540       4.411       4.275       4.111       3.896       3.637    
        3.322       2.985       2.664       2.324       1.963       1.485      0.9949      0.6579      0.3115       0.000    
   8    10.00       9.963       9.935       9.899       9.857       9.762       9.624       9.507       9.370       9.231    
        9.079       8.873       8.693       8.492       8.272       8.074       7.924       7.746       7.500       7.206    
        6.916       6.698       6.508       6.228       5.957       5.762       5.569       5.397       5.301       5.213    
        5.089       4.949       4.821       4.675       4.520       4.389       4.285       4.163       3.955       3.659    
        3.316       3.017       2.718       2.324       1.923       1.388      0.9211      0.6438      0.2981       0.000    
   9    10.00       9.971       9.939       9.898       9.827       9.701       9.553       9.415       9.295       9.151    
        8.971       8.787       8.607       8.413       8.185       8.000       7.858       7.646       7.403       7.100    
        6.850       6.633       6.359       6.070       5.841       5.667       5.475       5.335       5.242       5.139    
        5.028       4.903       4.782       4.655       4.523       4.402       4.303       4.194       3.980       3.660    
        3.346       3.083       2.770       2.391       1.799       1.195      0.8769      0.5440      0.2075       0.000    
  10    10.00       9.971       9.937       9.879       9.770       9.619       9.455       9.347       9.233       9.062    
        8.904       8.722       8.542       8.331       8.118       7.952       7.759       7.540       7.282       7.037    
        6.790       6.452       6.170       5.943       5.750       5.593       5.415       5.275       5.181       5.100    
        4.984       4.850       4.742       4.627       4.511       4.430       4.333       4.206       3.961       3.646    
        3.403       3.173       2.815       2.244       1.557       1.121      0.7947      0.4854      0.2422       0.000    
  11    10.00       9.971       9.925       9.835       9.712       9.542       9.397       9.306       9.169       9.023    
        8.872       8.680       8.463       8.236       8.057       7.876       7.695       7.458       7.207       6.966    
        6.607       6.283       6.060       5.858       5.671       5.496       5.325       5.218       5.143       5.061    
        4.927       4.803       4.717       4.615       4.524       4.435       4.324       4.188       3.957       3.707    
        3.453       3.153       2.763       2.133       1.492       1.052      0.7438      0.5646      0.3120       0.000    
  12    10.00       9.968       9.904       9.788       9.626       9.457       9.341       9.250       9.130       8.998    
        8.831       8.626       8.408       8.207       8.025       7.825       7.616       7.371       7.115       6.783    
        6.429       6.185       5.965       5.758       5.551       5.378       5.261       5.183       5.085       4.976    
        4.856       4.769       4.693       4.615       4.537       4.447       4.330       4.167       3.956       3.732    
        3.459       3.133       2.599       1.890       1.344       1.035      0.8249      0.5987      0.3415       0.000    
  13    10.00       9.957       9.857       9.698       9.528       9.382       9.289       9.208       9.106       8.978    
        8.801       8.587       8.386       8.226       8.014       7.768       7.522       7.257       6.971       6.646    
        6.337       6.071       5.832       5.617       5.418       5.293       5.223       5.107       4.980       4.882    
        4.809       4.743       4.675       4.613       4.537       4.459       4.355       4.169       3.956       3.691    
        3.377       2.964       2.343       1.770       1.374       1.112      0.8666      0.5999      0.2966       0.000    
  14    10.00       9.922       9.778       9.602       9.444       9.329       9.266       9.192       9.093       8.952    
        8.756       8.573       8.408       8.240       7.999       7.707       7.443       7.143       6.825       6.487    
        6.187       5.921       5.686       5.474       5.321       5.235       5.147       5.005       4.899       4.828    
        4.777       4.713       4.659       4.600       4.532       4.471       4.348       4.157       3.933       3.602    
        3.233       2.747       2.270       1.853       1.461       1.153      0.8815      0.6002      0.2676       0.000    
  15    10.00       9.854       9.693       9.535       9.409       9.320       9.250       9.180       9.082       8.950    
        8.776       8.597       8.433       8.193       7.908       7.627       7.334       7.024       6.645       6.287    
        6.009       5.752       5.533       5.374       5.260       5.171       5.059       4.928       4.842       4.793    
        4.733       4.683       4.642       4.586       4.524       4.457       4.325       4.146       3.861       3.505    
        3.124       2.690       2.306       1.878       1.548       1.221      0.8925      0.5946      0.2441       0.000    
  16    10.00       9.829       9.654       9.510       9.401       9.320       9.247       9.183       9.087       8.950    
        8.785       8.613       8.409       8.102       7.789       7.554       7.265       6.850       6.419       6.088    
        5.805       5.593       5.414       5.280       5.154       5.074       4.951       4.846       4.782       4.726    
        4.683       4.655       4.612       4.560       4.504       4.427       4.305       4.087       3.778       3.459    
        3.135       2.720       2.291       1.915       1.605       1.261      0.8903      0.5333      0.2009       0.000    
  17    10.00       9.807       9.630       9.514       9.417       9.335       9.264       9.190       9.086       8.957    
        8.803       8.585       8.303       7.971       7.709       7.487       7.130       6.661       6.227       5.910    
        5.685       5.449       5.250       5.106       5.003       4.901       4.795       4.731       4.681       4.655    
        4.643       4.616       4.573       4.522       4.463       4.379       4.235       4.044       3.799       3.468    
        3.102       2.666       2.271       1.940       1.623       1.271      0.9093      0.5558      0.2352       0.000    
  18    10.00       9.795       9.629       9.529       9.441       9.362       9.291       9.201       9.099       8.960    
        8.774       8.515       8.202       7.921       7.663       7.336       6.922       6.494       6.112       5.801    
        5.524       5.222       5.052       4.932       4.843       4.726       4.659       4.604       4.573       4.586    
        4.585       4.562       4.519       4.463       4.402       4.314       4.179       4.028       3.816       3.513    
        3.041       2.578       2.256       1.942       1.673       1.304      0.9053      0.5458      0.2354       0.000    
  19    10.00       9.804       9.665       9.562       9.468       9.388       9.305       9.221       9.126       8.966    
        8.746       8.469       8.159       7.847       7.504       7.150       6.768       6.356       5.972       5.643    
        5.321       5.060       4.925       4.834       4.706       4.602       4.546       4.495       4.489       4.496    
        4.508       4.498       4.446       4.396       4.349       4.283       4.159       3.995       3.783       3.428    
        2.954       2.563       2.243       1.935       1.633       1.252      0.8708      0.5431      0.2562       0.000    
  20    10.00       9.815       9.697       9.605       9.515       9.420       9.321       9.231       9.135       8.971    
        8.732       8.443       8.083       7.676       7.284       6.996       6.612       6.173       5.837       5.511    
        5.225       5.009       4.846       4.706       4.542       4.470       4.434       4.410       4.416       4.419    
        4.427       4.408       4.369       4.345       4.310       4.245       4.102       3.939       3.698       3.300    
        2.893       2.582       2.214       1.862       1.533       1.157      0.8737      0.5398      0.2396       0.000    
  21    10.00       9.841       9.735       9.643       9.544       9.453       9.344       9.246       9.141       8.956    
        8.697       8.343       7.892       7.417       7.056       6.794       6.436       6.116       5.802       5.450    
        5.179       4.940       4.736       4.469       4.333       4.297       4.240       4.281       4.318       4.315    
        4.312       4.287       4.289       4.281       4.257       4.172       4.035       3.895       3.545       3.132    
        2.829       2.494       2.117       1.789       1.440       1.110      0.7911      0.4754      0.2391       0.000    
  22    10.00       9.875       9.764       9.664       9.567       9.482       9.357       9.230       9.108       8.915    
        8.598       8.152       7.645       7.202       6.893       6.622       6.351       6.120       5.774       5.429    
        5.143       4.802       4.433       4.157       4.055       3.954       3.968       4.075       4.114       4.134    
        4.152       4.153       4.185       4.211       4.189       4.104       3.973       3.714       3.315       3.053    
        2.727       2.365       2.026       1.710       1.413       1.022      0.6865      0.4555      0.2563       0.000    
  23    10.00       9.877       9.770       9.679       9.577       9.463       9.322       9.207       9.099       8.856    
        8.467       7.989       7.527       7.142       6.826       6.597       6.341       6.039       5.708       5.433    
        5.036       4.536       4.142       3.861       3.447       3.446       3.666       3.787       3.874       3.962    
        4.000       4.035       4.078       4.117       4.099       4.017       3.826       3.531       3.212       2.889    
        2.576       2.277       1.951       1.702       1.326      0.9287      0.6674      0.4378      0.2276       0.000    
  24    10.00       9.904       9.782       9.663       9.545       9.414       9.287       9.188       9.068       8.781    
        8.338       7.887       7.505       7.168       6.866       6.566       6.254       5.980       5.718       5.396    
        4.921       4.425       3.958       3.108       2.202       2.726       3.230       3.523       3.688       3.824    
        3.898       3.948       3.998       4.015       3.996       3.887       3.675       3.437       3.090       2.749    
        2.505       2.218       1.910       1.592       1.187      0.8613      0.6413      0.4098      0.1810       0.000    
  25    10.00       9.895       9.754       9.608       9.471       9.352       9.254       9.155       9.006       8.709    
        8.244       7.824       7.531       7.216       6.866       6.555       6.263       6.024       5.780       5.364    
        4.821       4.334       3.587       2.208     -0.6644       2.102       2.898       3.364       3.609       3.751    
        3.837       3.895       3.937       3.943       3.909       3.786       3.561       3.281       2.998       2.714    
        2.438       2.127       1.776       1.439       1.055      0.7898      0.6375      0.3976      0.1475       0.000    
  26    10.00       9.869       9.687       9.523       9.413       9.316       9.220       9.098       8.922       8.556    
        8.125       7.831       7.550       7.236       6.908       6.609       6.334       6.094       5.787       5.344    
        4.867       4.329       3.674       2.927       2.241       2.598       3.071       3.398       3.598       3.729    
        3.811       3.871       3.897       3.891       3.837       3.685       3.430       3.205       2.979       2.673    
        2.388       2.036       1.634       1.271      0.9582      0.7715      0.6019      0.3534      0.1505       0.000    
  27    10.00       9.840       9.647       9.494       9.400       9.275       9.148       8.994       8.759       8.413    
        8.108       7.848       7.562       7.256       6.935       6.697       6.505       6.181       5.793       5.342    
        4.936       4.545       4.015       3.521       3.130       3.185       3.365       3.525       3.651       3.745    
        3.830       3.879       3.887       3.861       3.783       3.606       3.402       3.204       2.941       2.653    
        2.358       1.934       1.472       1.132      0.9137      0.7579      0.5715      0.3730      0.1800       0.000    
  28    10.00       9.819       9.678       9.506       9.347       9.194       9.054       8.872       8.638       8.370    
        8.119       7.887       7.604       7.262       6.975       6.782       6.568       6.212       5.763       5.365    
        5.076       4.781       4.362       3.975       3.724       3.639       3.629       3.677       3.758       3.836    
        3.891       3.903       3.895       3.847       3.741       3.580       3.414       3.179       2.904       2.613    
        2.251       1.851       1.393       1.056      0.9033      0.7542      0.5886      0.3893      0.1806       0.000    
  29    10.00       9.825       9.649       9.468       9.278       9.130       8.972       8.771       8.573       8.360    
        8.137       7.907       7.631       7.343       7.095       6.866       6.581       6.187       5.777       5.466    
        5.218       4.958       4.613       4.265       4.060       3.947       3.876       3.873       3.913       3.939    
        3.943       3.937       3.910       3.840       3.716       3.574       3.418       3.197       2.892       2.522    
        2.191       1.764       1.306       1.041      0.9061      0.7594      0.5839      0.3801      0.1891       0.000    
  30    10.00       9.800       9.623       9.405       9.213       9.077       8.908       8.731       8.578       8.388    
        8.159       7.911       7.660       7.429       7.209       6.951       6.589       6.222       5.892       5.594    
        5.379       5.120       4.804       4.502       4.255       4.155       4.090       4.066       4.043       4.021    
        3.996       3.972       3.925       3.832       3.715       3.600       3.442       3.158       2.778       2.397    
        2.058       1.664       1.315       1.069      0.9269      0.7612      0.5736      0.3983      0.1955       0.000    
  31    10.00       9.774       9.570       9.362       9.188       9.047       8.887       8.730       8.579       8.394    
        8.169       7.920       7.703       7.513       7.306       7.016       6.658       6.337       6.075       5.808    
        5.578       5.284       4.972       4.717       4.465       4.306       4.242       4.180       4.134       4.087    
        4.054       4.005       3.936       3.843       3.727       3.597       3.347       3.027       2.709       2.334    
        2.012       1.618       1.277       1.097      0.9443      0.7880      0.5928      0.3987      0.1891       0.000    
  32    10.00       9.757       9.537       9.360       9.213       9.072       8.905       8.728       8.545       8.371    
        8.150       7.935       7.742       7.533       7.342       7.097       6.817       6.574       6.302       6.025    
        5.792       5.518       5.202       4.926       4.665       4.438       4.353       4.272       4.207       4.142    
        4.094       4.045       3.951       3.832       3.721       3.540       3.229       2.925       2.642       2.298    
        1.922       1.553       1.299       1.160      0.9923      0.7947      0.5882      0.3787      0.1890       0.000    
  33    10.00       9.750       9.562       9.420       9.273       9.110       8.910       8.714       8.519       8.320    
        8.137       7.956       7.766       7.567       7.355       7.164       6.959       6.752       6.528       6.257    
        5.986       5.728       5.461       5.139       4.818       4.560       4.432       4.352       4.273       4.190    
        4.130       4.061       3.960       3.841       3.679       3.427       3.107       2.847       2.571       2.168    
        1.823       1.579       1.375       1.210       1.018      0.8102      0.5571      0.3332      0.1502       0.000    
  34    10.00       9.772       9.619       9.485       9.323       9.124       8.914       8.685       8.471       8.305    
        8.140       7.976       7.804       7.599       7.412       7.228       7.050       6.884       6.671       6.395    
        6.139       5.904       5.640       5.306       4.954       4.666       4.500       4.407       4.316       4.223    
        4.143       4.069       3.966       3.819       3.621       3.312       2.997       2.757       2.428       2.070    
        1.853       1.690       1.494       1.281       1.029      0.7352      0.4505      0.2670      0.1108       0.000    
  35    10.00       9.810       9.673       9.537       9.364       9.141       8.901       8.648       8.444       8.302    
        8.192       8.026       7.837       7.619       7.420       7.290       7.159       6.989       6.769       6.506    
        6.261       6.029       5.785       5.412       5.015       4.742       4.560       4.451       4.346       4.240    
        4.158       4.069       3.948       3.760       3.456       3.132       2.918       2.665       2.324       2.105    
        1.952       1.767       1.569       1.361       1.041      0.6258      0.3465      0.2279      0.1157       0.000    
  36    10.00       9.833       9.714       9.584       9.402       9.137       8.846       8.607       8.461       8.350    
        8.201       8.015       7.842       7.650       7.474       7.344       7.220       7.071       6.897       6.654    
        6.400       6.154       5.855       5.458       5.067       4.789       4.616       4.488       4.361       4.250    
        4.160       4.045       3.857       3.580       3.302       3.073       2.868       2.602       2.326       2.178    
        2.022       1.855       1.655       1.386      0.9512      0.5280      0.3259      0.2087      0.1073       0.000    
  37    10.00       9.851       9.759       9.620       9.378       9.089       8.833       8.647       8.525       8.393    
        8.201       8.002       7.853       7.687       7.525       7.401       7.288       7.149       6.966       6.757    
        6.549       6.281       5.911       5.538       5.168       4.856       4.650       4.492       4.379       4.256    
        4.138       3.975       3.698       3.441       3.239       3.040       2.826       2.614       2.413       2.247    
        2.096       1.908       1.682       1.328      0.8740      0.5105      0.3061      0.1946      9.7612E-02   0.000    
  38    10.00       9.874       9.763       9.612       9.361       9.064       8.848       8.710       8.584       8.430    
        8.228       8.018       7.872       7.720       7.559       7.435       7.339       7.218       7.040       6.859    
        6.667       6.366       5.950       5.548       5.192       4.890       4.669       4.494       4.380       4.267    
        4.101       3.835       3.585       3.417       3.213       3.013       2.857       2.674       2.490       2.329    
        2.151       1.895       1.607       1.223      0.7708      0.4911      0.3456      0.2153      9.6638E-02   0.000    
  39    10.00       9.873       9.748       9.590       9.349       9.080       8.885       8.762       8.610       8.442    
        8.278       8.066       7.899       7.756       7.601       7.470       7.361       7.246       7.103       6.938    
        6.722       6.406       5.983       5.536       5.171       4.894       4.645       4.469       4.373       4.269    
        4.026       3.739       3.573       3.380       3.189       3.043       2.910       2.743       2.562       2.411    
        2.153       1.790       1.450       1.033      0.6900      0.5330      0.3969      0.2585      0.1330       0.000    
  40    10.00       9.864       9.754       9.594       9.372       9.148       8.958       8.797       8.618       8.463    
        8.340       8.136       7.927       7.781       7.638       7.492       7.373       7.281       7.158       6.969    
        6.726       6.368       5.940       5.524       5.147       4.861       4.588       4.447       4.362       4.224    
        4.004       3.777       3.551       3.347       3.209       3.081       2.954       2.797       2.629       2.431    
        2.082       1.685       1.316      0.9775      0.7413      0.5794      0.4437      0.3133      0.1538       0.000    
  41    10.00       9.883       9.795       9.640       9.413       9.180       9.001       8.858       8.682       8.497    
        8.353       8.170       7.977       7.840       7.675       7.500       7.396       7.299       7.146       6.945    
        6.698       6.353       5.927       5.519       5.144       4.766       4.510       4.429       4.340       4.235    
        4.055       3.783       3.553       3.388       3.248       3.132       2.992       2.840       2.667       2.359    
        1.950       1.562       1.239      0.9888      0.7841      0.6337      0.4885      0.3452      0.1818       0.000    
  42    10.00       9.912       9.817       9.669       9.474       9.254       9.051       8.905       8.748       8.548    
        8.364       8.189       8.028       7.897       7.724       7.538       7.414       7.286       7.120       6.896    
        6.618       6.244       5.875       5.472       4.987       4.645       4.503       4.440       4.362       4.246    
        4.036       3.798       3.579       3.412       3.297       3.173       3.048       2.884       2.609       2.201    
        1.842       1.551       1.269      0.9859      0.7955      0.6677      0.5282      0.3600      0.1998       0.000    
  43    10.00       9.932       9.830       9.679       9.489       9.307       9.128       8.964       8.775       8.571    
        8.402       8.227       8.068       7.947       7.788       7.582       7.420       7.275       7.049       6.765    
        6.492       6.134       5.790       5.335       4.875       4.644       4.529       4.456       4.380       4.259    
        4.059       3.839       3.628       3.461       3.351       3.227       3.065       2.832       2.431       2.068    
        1.842       1.583       1.286      0.9914      0.7893      0.6708      0.5630      0.3901      0.1828       0.000    
  44    10.00       9.925       9.839       9.683       9.512       9.381       9.204       8.985       8.771       8.602    
        8.436       8.263       8.123       7.997       7.815       7.600       7.417       7.243       6.978       6.688    
        6.361       6.001       5.638       5.180       4.831       4.658       4.561       4.495       4.411       4.260    
        4.053       3.876       3.690       3.534       3.421       3.256       3.040       2.706       2.295       2.052    
        1.846       1.575       1.278       1.008      0.8012      0.6740      0.5643      0.3827      0.1687       0.000    
  45    10.00       9.910       9.807       9.683       9.559       9.395       9.212       9.006       8.794       8.626    
        8.456       8.301       8.178       8.038       7.842       7.613       7.407       7.209       6.922       6.579    
        6.202       5.817       5.425       5.085       4.841       4.693       4.597       4.528       4.426       4.301    
        4.121       3.920       3.753       3.594       3.437       3.262       3.024       2.666       2.308       2.024    
        1.787       1.531       1.252       1.010      0.8282      0.7221      0.5578      0.3321      0.1514       0.000    
  46    10.00       9.892       9.786       9.688       9.550       9.364       9.188       9.021       8.815       8.636    
        8.486       8.341       8.219       8.055       7.847       7.645       7.425       7.167       6.856       6.482    
        6.036       5.651       5.335       5.074       4.888       4.757       4.640       4.548       4.467       4.327    
        4.138       3.965       3.802       3.623       3.466       3.296       3.028       2.616       2.237       1.983    
        1.758       1.511       1.248       1.034      0.8930      0.7564      0.5071      0.2492      0.1084       0.000    
  47    10.00       9.886       9.779       9.645       9.485       9.334       9.183       9.003       8.816       8.656    
        8.520       8.391       8.222       8.045       7.859       7.663       7.426       7.124       6.831       6.378    
        5.889       5.586       5.312       5.107       4.934       4.807       4.692       4.579       4.484       4.341    
        4.144       3.973       3.811       3.641       3.503       3.299       2.927       2.555       2.237       1.965    
        1.767       1.533       1.298       1.091      0.9162      0.6957      0.4184      0.2187      9.1073E-02   0.000    
  48    10.00       9.873       9.746       9.603       9.458       9.324       9.172       9.007       8.834       8.678    
        8.540       8.391       8.209       8.026       7.844       7.651       7.426       7.142       6.776       6.324    
        5.899       5.588       5.321       5.133       4.992       4.837       4.721       4.627       4.509       4.316    
        4.123       3.957       3.807       3.680       3.500       3.231       2.876       2.539       2.237       1.996    
        1.784       1.560       1.348       1.114      0.8518      0.5668      0.3585      0.2126      9.6058E-02   0.000    
  49    10.00       9.862       9.724       9.584       9.466       9.327       9.165       9.004       8.865       8.703    
        8.538       8.352       8.173       8.020       7.814       7.626       7.439       7.122       6.759       6.399    
        5.951       5.603       5.337       5.172       5.009       4.842       4.751       4.663       4.479       4.246    
        4.079       3.946       3.836       3.673       3.464       3.223       2.866       2.529       2.292       2.036    
        1.785       1.580       1.353       1.077      0.7556      0.5061      0.3589      0.2317      0.1188       0.000    
  50    10.00       9.867       9.729       9.587       9.458       9.322       9.178       9.020       8.873       8.729    
        8.527       8.333       8.169       7.964       7.754       7.611       7.433       7.187       6.828       6.472    
        6.015       5.578       5.347       5.179       5.009       4.873       4.765       4.648       4.430       4.208    
        4.070       3.959       3.832       3.663       3.469       3.238       2.877       2.531       2.301       2.070    
        1.832       1.573       1.318       1.022      0.7048      0.5181      0.3863      0.2618      0.1579       0.000    

 HEAD WILL BE SAVED ON UNIT   51 AT END OF TIME STEP  93, STRESS PERIOD    2

 DRAWDOWN WILL BE SAVED ON UNIT   52 AT END OF TIME STEP  93, STRESS PERIOD    2
1
  VOLUMETRIC BUDGET FOR ENTIRE MODEL AT END OF TIME STEP 93 IN STRESS PERIOD   2
  ------------------------------------------------------------------------------

     CUMULATIVE VOLUMES      L**3       RATES FOR THIS TIME STEP      L**3/T
     ------------------                 ------------------------

           IN:                                      IN:
           ---                                      ---
             STORAGE =       44341.0898               STORAGE =         426.6107
       CONSTANT HEAD =       36849.7383         CONSTANT HEAD =         431.6851
               WELLS =           0.0000                 WELLS =           0.0000

            TOTAL IN =       81190.8281              TOTAL IN =         858.2958

          OUT:                                     OUT:
          ----                                     ----
             STORAGE =       1.1143E-02               STORAGE =           0.0000
       CONSTANT HEAD =       34690.8125         CONSTANT HEAD =         358.2959
               WELLS =       46500.0000                 WELLS =         500.0000

           TOTAL OUT =       81190.8203             TOTAL OUT =         858.2959

            IN - OUT =       7.8125E-03              IN - OUT =      -1.2207E-04

 PERCENT DISCREPANCY =           0.00     PERCENT DISCREPANCY =           0.00






          TIME SUMMARY AT END OF TIME STEP  93 IN STRESS PERIOD    2
                    SECONDS     MINUTES      HOURS       DAYS        YEARS
                    -----------------------------------------------------------
   TIME STEP LENGTH  86400.      1440.0      24.000      1.0000     2.73785E-03
 STRESS PERIOD TIME 8.03520E+06 1.33920E+05  2232.0      93.000     0.25462    
         TOTAL TIME 8.12160E+06 1.35360E+05  2256.0      94.000     0.25736    
1
 
 SOLVING FOR HEAD 

 OUTPUT CONTROL FOR STRESS PERIOD    2   TIME STEP  94
    SAVE HEAD FOR ALL LAYERS
    SAVE DRAWDOWN FOR ALL LAYERS
    SAVE BUDGET
    PRINT HEAD FOR ALL LAYERS
    PRINT BUDGET
 UBDSV1 SAVING "         STORAGE" ON UNIT  53 AT TIME STEP 94, STRESS PERIOD   2
 UBDSV2 SAVING "   CONSTANT HEAD" ON UNIT  53 AT TIME STEP 94, STRESS PERIOD   2
 UBDSV1 SAVING "FLOW RIGHT FACE " ON UNIT  53 AT TIME STEP 94, STRESS PERIOD   2
 UBDSV1 SAVING "FLOW FRONT FACE " ON UNIT  53 AT TIME STEP 94, STRESS PERIOD   2
1
              HEAD IN LAYER   1 AT END OF TIME STEP  94 IN STRESS PERIOD    2
  ---------------------------------------------------------------------------

            1           2           3           4           5           6           7           8           9          10
           11          12          13          14          15          16          17          18          19          20
           21          22          23          24          25          26          27          28          29          30
           31          32          33          34          35          36          37          38          39          40
           41          42          43          44          45          46          47          48          49          50
 ........................................................................................................................
   1    10.00       9.949       9.897       9.837       9.790       9.750       9.696       9.622       9.542       9.468    
        9.305       9.101       8.951       8.784       8.605       8.426       8.259       8.068       7.813       7.560    
        7.387       7.190       6.932       6.670       6.436       6.233       5.946       5.684       5.500       5.308    
        5.145       5.041       4.932       4.808       4.690       4.544       4.387       4.175       3.932       3.665    
        3.321       2.969       2.504       1.995       1.610       1.333       1.125      0.8876      0.5212       0.000    
   2    10.00       9.943       9.888       9.837       9.797       9.758       9.699       9.624       9.550       9.450    
        9.290       9.108       8.939       8.786       8.621       8.436       8.238       8.040       7.803       7.548    
        7.359       7.198       6.921       6.637       6.430       6.200       5.921       5.673       5.460       5.279    
        5.143       5.048       4.956       4.824       4.685       4.540       4.360       4.162       3.926       3.622    
        3.300       3.001       2.514       2.008       1.668       1.421       1.182      0.9168      0.5537       0.000    
   3    10.00       9.934       9.888       9.853       9.814       9.774       9.710       9.620       9.530       9.422    
        9.277       9.115       8.952       8.797       8.601       8.367       8.173       8.004       7.784       7.560    
        7.368       7.136       6.862       6.611       6.385       6.128       5.859       5.613       5.395       5.263    
        5.153       5.063       4.971       4.826       4.680       4.524       4.346       4.124       3.860       3.627    
        3.344       2.936       2.461       2.099       1.810       1.524       1.231      0.9292      0.5250       0.000    
   4    10.00       9.934       9.893       9.861       9.835       9.792       9.718       9.615       9.508       9.399    
        9.261       9.115       8.952       8.757       8.515       8.298       8.159       7.968       7.756       7.580    
        7.315       7.019       6.778       6.556       6.337       6.028       5.730       5.532       5.387       5.276    
        5.178       5.084       4.982       4.813       4.633       4.492       4.302       4.072       3.849       3.647    
        3.324       2.874       2.517       2.213       1.904       1.580       1.227      0.8744      0.4484       0.000    
   5    10.00       9.939       9.902       9.870       9.846       9.802       9.724       9.605       9.486       9.377    
        9.259       9.109       8.898       8.669       8.464       8.293       8.119       7.939       7.741       7.492    
        7.182       6.938       6.738       6.513       6.230       5.909       5.666       5.527       5.408       5.294    
        5.181       5.066       4.950       4.785       4.601       4.430       4.260       4.081       3.880       3.614    
        3.248       2.907       2.603       2.297       1.960       1.583       1.140      0.7354      0.3810       0.000    
   6    10.00       9.949       9.913       9.882       9.849       9.800       9.716       9.588       9.483       9.366    
        9.234       9.046       8.814       8.624       8.434       8.238       8.059       7.899       7.677       7.392    
        7.116       6.884       6.678       6.398       6.091       5.850       5.655       5.526       5.392       5.273    
        5.173       5.048       4.903       4.732       4.552       4.407       4.262       4.100       3.889       3.602    
        3.285       2.957       2.646       2.338       1.973       1.517       1.040      0.6908      0.3558       0.000    
   7    10.00       9.956       9.924       9.891       9.855       9.797       9.684       9.560       9.451       9.306    
        9.169       8.968       8.756       8.560       8.364       8.163       7.989       7.840       7.583       7.280    
        7.030       6.792       6.563       6.292       6.033       5.814       5.643       5.486       5.341       5.251    
        5.149       5.008       4.855       4.687       4.534       4.405       4.269       4.106       3.891       3.632    
        3.318       2.981       2.660       2.321       1.961       1.483      0.9938      0.6572      0.3112       0.000    
   8    10.00       9.963       9.935       9.899       9.857       9.762       9.624       9.506       9.368       9.230    
        9.077       8.871       8.690       8.489       8.269       8.070       7.920       7.741       7.495       7.201    
        6.910       6.693       6.502       6.222       5.950       5.756       5.562       5.390       5.295       5.206    
        5.082       4.942       4.814       4.669       4.514       4.382       4.279       4.157       3.950       3.655    
        3.311       3.013       2.715       2.321       1.921       1.387      0.9200      0.6431      0.2977       0.000    
   9    10.00       9.971       9.939       9.897       9.827       9.700       9.552       9.413       9.293       9.149    
        8.969       8.785       8.604       8.410       8.181       7.996       7.854       7.641       7.398       7.095    
        6.844       6.627       6.353       6.063       5.834       5.660       5.468       5.328       5.235       5.132    
        5.021       4.896       4.775       4.648       4.516       4.395       4.296       4.188       3.974       3.655    
        3.341       3.079       2.766       2.388       1.797       1.194      0.8759      0.5434      0.2072       0.000    
  10    10.00       9.971       9.937       9.879       9.770       9.618       9.454       9.345       9.231       9.060    
        8.902       8.720       8.539       8.327       8.114       7.948       7.755       7.535       7.276       7.031    
        6.784       6.446       6.163       5.936       5.743       5.585       5.407       5.267       5.174       5.093    
        4.977       4.842       4.735       4.620       4.504       4.423       4.326       4.200       3.955       3.641    
        3.398       3.169       2.811       2.241       1.555       1.119      0.7938      0.4848      0.2420       0.000    
  11    10.00       9.971       9.925       9.835       9.711       9.541       9.395       9.304       9.167       9.021    
        8.869       8.677       8.460       8.232       8.053       7.872       7.690       7.453       7.201       6.960    
        6.601       6.276       6.053       5.850       5.663       5.488       5.318       5.210       5.135       5.053    
        4.920       4.795       4.709       4.608       4.517       4.428       4.317       4.181       3.951       3.702    
        3.448       3.149       2.759       2.131       1.490       1.051      0.7429      0.5639      0.3116       0.000    
  12    10.00       9.968       9.904       9.788       9.625       9.456       9.339       9.248       9.127       8.996    
        8.828       8.623       8.404       8.203       8.021       7.821       7.611       7.365       7.109       6.777    
        6.422       6.178       5.958       5.751       5.543       5.370       5.253       5.175       5.077       4.968    
        4.848       4.761       4.686       4.608       4.530       4.440       4.323       4.161       3.950       3.726    
        3.453       3.129       2.595       1.888       1.342       1.034      0.8239      0.5980      0.3411       0.000    
  13    10.00       9.957       9.857       9.697       9.527       9.381       9.287       9.206       9.104       8.976    
        8.798       8.583       8.382       8.222       8.010       7.763       7.517       7.252       6.965       6.639    
        6.330       6.064       5.824       5.609       5.410       5.285       5.215       5.099       4.972       4.874    
        4.801       4.734       4.667       4.605       4.529       4.452       4.348       4.163       3.950       3.686    
        3.372       2.960       2.340       1.768       1.372       1.110      0.8655      0.5991      0.2962       0.000    
  14    10.00       9.922       9.777       9.600       9.443       9.327       9.264       9.190       9.091       8.949    
        8.753       8.569       8.405       8.236       7.994       7.702       7.437       7.136       6.818       6.480    
        6.179       5.913       5.678       5.465       5.313       5.227       5.139       4.996       4.890       4.819    
        4.768       4.705       4.650       4.592       4.525       4.464       4.341       4.150       3.927       3.597    
        3.228       2.742       2.267       1.851       1.459       1.152      0.8804      0.5994      0.2672       0.000    
  15    10.00       9.854       9.692       9.534       9.407       9.319       9.248       9.178       9.079       8.947    
        8.773       8.593       8.430       8.189       7.904       7.622       7.328       7.018       6.638       6.279    
        6.001       5.744       5.524       5.365       5.251       5.162       5.050       4.919       4.833       4.784    
        4.724       4.674       4.633       4.577       4.516       4.450       4.317       4.139       3.854       3.499    
        3.119       2.686       2.303       1.875       1.546       1.219      0.8914      0.5939      0.2438       0.000    
  16    10.00       9.829       9.654       9.508       9.399       9.318       9.245       9.181       9.084       8.947    
        8.782       8.610       8.405       8.097       7.783       7.549       7.259       6.843       6.411       6.081    
        5.797       5.584       5.405       5.271       5.145       5.065       4.942       4.837       4.773       4.717    
        4.675       4.646       4.604       4.552       4.496       4.418       4.297       4.080       3.771       3.453    
        3.130       2.716       2.287       1.912       1.602       1.260      0.8892      0.5326      0.2006       0.000    
  17    10.00       9.806       9.629       9.513       9.415       9.333       9.262       9.188       9.083       8.954    
        8.800       8.581       8.299       7.967       7.703       7.481       7.123       6.653       6.219       5.901    
        5.676       5.440       5.241       5.097       4.994       4.892       4.786       4.722       4.672       4.646    
        4.635       4.607       4.564       4.513       4.454       4.370       4.227       4.037       3.792       3.462    
        3.097       2.662       2.267       1.937       1.620       1.269      0.9081      0.5551      0.2349       0.000    
  18    10.00       9.795       9.628       9.528       9.439       9.360       9.289       9.199       9.096       8.957    
        8.771       8.511       8.198       7.916       7.658       7.330       6.915       6.487       6.104       5.793    
        5.515       5.213       5.043       4.923       4.834       4.716       4.649       4.595       4.564       4.576    
        4.576       4.553       4.511       4.454       4.394       4.305       4.171       4.020       3.809       3.507    
        3.035       2.574       2.253       1.939       1.670       1.302      0.9041      0.5451      0.2351       0.000    
  19    10.00       9.803       9.665       9.561       9.467       9.387       9.303       9.219       9.124       8.963    
        8.743       8.465       8.155       7.841       7.498       7.143       6.761       6.349       5.963       5.634    
        5.312       5.051       4.916       4.824       4.696       4.593       4.536       4.486       4.479       4.486    
        4.498       4.488       4.437       4.387       4.340       4.275       4.151       3.987       3.776       3.422    
        2.948       2.558       2.239       1.932       1.631       1.250      0.8697      0.5424      0.2559       0.000    
  20    10.00       9.814       9.696       9.604       9.513       9.418       9.319       9.229       9.133       8.968    
        8.729       8.439       8.078       7.670       7.278       6.989       6.605       6.165       5.828       5.502    
        5.216       5.000       4.837       4.697       4.533       4.461       4.425       4.400       4.407       4.409    
        4.417       4.398       4.360       4.336       4.301       4.237       4.094       3.931       3.691       3.294    
        2.887       2.578       2.211       1.859       1.531       1.155      0.8725      0.5391      0.2393       0.000    
  21    10.00       9.841       9.735       9.642       9.543       9.452       9.342       9.244       9.139       8.953    
        8.694       8.338       7.887       7.411       7.049       6.787       6.428       6.108       5.793       5.441    
        5.170       4.931       4.726       4.459       4.324       4.287       4.230       4.272       4.308       4.305    
        4.302       4.277       4.279       4.272       4.248       4.163       4.026       3.887       3.538       3.126    
        2.824       2.490       2.113       1.786       1.438       1.109      0.7900      0.4748      0.2387       0.000    
  22    10.00       9.875       9.763       9.663       9.566       9.480       9.355       9.228       9.105       8.913    
        8.594       8.147       7.639       7.195       6.886       6.615       6.342       6.112       5.765       5.420    
        5.134       4.792       4.423       4.147       4.045       3.944       3.958       4.065       4.104       4.124    
        4.142       4.143       4.175       4.201       4.180       4.095       3.965       3.706       3.309       3.047    
        2.722       2.361       2.023       1.708       1.411       1.020      0.6856      0.4549      0.2560       0.000    
  23    10.00       9.877       9.769       9.678       9.576       9.462       9.320       9.205       9.097       8.853    
        8.463       7.983       7.521       7.135       6.818       6.589       6.333       6.031       5.700       5.424    
        5.027       4.526       4.132       3.851       3.437       3.436       3.656       3.777       3.864       3.952    
        3.990       4.025       4.068       4.107       4.089       4.008       3.817       3.523       3.205       2.883    
        2.572       2.273       1.948       1.700       1.324      0.9274      0.6665      0.4372      0.2273       0.000    
  24    10.00       9.904       9.781       9.662       9.544       9.413       9.285       9.186       9.065       8.778    
        8.334       7.881       7.499       7.161       6.859       6.558       6.246       5.972       5.709       5.387    
        4.912       4.416       3.948       3.098       2.192       2.716       3.220       3.513       3.678       3.814    
        3.888       3.938       3.987       4.005       3.986       3.878       3.667       3.430       3.083       2.743    
        2.500       2.214       1.907       1.589       1.185      0.8600      0.6404      0.4092      0.1807       0.000    
  25    10.00       9.895       9.753       9.607       9.469       9.350       9.252       9.153       9.003       8.705    
        8.240       7.818       7.525       7.210       6.859       6.547       6.255       6.015       5.771       5.355    
        4.812       4.324       3.577       2.198     -0.6755       2.091       2.887       3.353       3.598       3.741    
        3.827       3.885       3.927       3.933       3.899       3.777       3.552       3.274       2.992       2.708    
        2.433       2.123       1.773       1.437       1.054      0.7886      0.6366      0.3970      0.1473       0.000    
  26    10.00       9.868       9.687       9.522       9.411       9.314       9.218       9.096       8.919       8.552    
        8.120       7.825       7.543       7.229       6.901       6.601       6.325       6.086       5.778       5.335    
        4.858       4.319       3.664       2.916       2.230       2.588       3.061       3.388       3.588       3.719    
        3.800       3.860       3.887       3.881       3.827       3.676       3.422       3.197       2.973       2.667    
        2.383       2.033       1.631       1.269      0.9567      0.7704      0.6010      0.3529      0.1503       0.000    
  27    10.00       9.839       9.646       9.492       9.399       9.273       9.146       8.992       8.756       8.409    
        8.103       7.843       7.556       7.250       6.928       6.689       6.497       6.173       5.784       5.332    
        4.927       4.535       4.005       3.511       3.120       3.175       3.354       3.514       3.641       3.734    
        3.819       3.869       3.877       3.851       3.773       3.597       3.394       3.197       2.934       2.647    
        2.354       1.930       1.470       1.130      0.9123      0.7567      0.5706      0.3725      0.1797       0.000    
  28    10.00       9.818       9.677       9.505       9.345       9.191       9.051       8.869       8.635       8.366    
        8.115       7.882       7.598       7.256       6.968       6.775       6.560       6.204       5.754       5.356    
        5.066       4.772       4.353       3.965       3.714       3.628       3.619       3.667       3.748       3.826    
        3.881       3.893       3.885       3.837       3.731       3.571       3.406       3.172       2.898       2.607    
        2.247       1.847       1.390       1.054      0.9019      0.7531      0.5877      0.3887      0.1803       0.000    
  29    10.00       9.825       9.648       9.466       9.276       9.127       8.969       8.767       8.569       8.356    
        8.132       7.901       7.626       7.336       7.088       6.859       6.573       6.179       5.768       5.457    
        5.209       4.949       4.603       4.255       4.050       3.937       3.866       3.863       3.903       3.929    
        3.933       3.927       3.900       3.830       3.706       3.565       3.410       3.190       2.885       2.516    
        2.186       1.761       1.304       1.039      0.9047      0.7582      0.5831      0.3795      0.1888       0.000    
  30    10.00       9.799       9.622       9.404       9.210       9.074       8.905       8.728       8.575       8.384    
        8.154       7.906       7.654       7.423       7.202       6.944       6.581       6.214       5.883       5.585    
        5.370       5.111       4.795       4.492       4.245       4.145       4.080       4.056       4.033       4.011    
        3.987       3.963       3.915       3.822       3.706       3.592       3.434       3.151       2.772       2.392    
        2.054       1.661       1.313       1.068      0.9255      0.7600      0.5728      0.3977      0.1952       0.000    
  31    10.00       9.773       9.568       9.360       9.186       9.044       8.884       8.727       8.576       8.390    
        8.164       7.915       7.698       7.507       7.300       7.009       6.651       6.329       6.067       5.800    
        5.569       5.275       4.963       4.708       4.455       4.296       4.232       4.170       4.124       4.077    
        4.044       3.995       3.926       3.834       3.718       3.588       3.339       3.021       2.703       2.329    
        2.008       1.616       1.275       1.096      0.9429      0.7868      0.5919      0.3981      0.1888       0.000    
  32    10.00       9.756       9.536       9.358       9.211       9.070       8.902       8.724       8.541       8.367    
        8.145       7.930       7.737       7.527       7.336       7.090       6.810       6.567       6.295       6.017    
        5.784       5.509       5.192       4.917       4.656       4.429       4.344       4.262       4.198       4.132    
        4.084       4.035       3.942       3.823       3.712       3.532       3.222       2.919       2.637       2.294    
        1.918       1.550       1.297       1.158      0.9909      0.7936      0.5874      0.3781      0.1887       0.000    
  33    10.00       9.749       9.561       9.418       9.271       9.108       8.908       8.710       8.515       8.316    
        8.132       7.951       7.761       7.561       7.349       7.158       6.953       6.745       6.521       6.249    
        5.978       5.720       5.452       5.130       4.808       4.550       4.422       4.343       4.264       4.181    
        4.121       4.052       3.951       3.833       3.671       3.420       3.100       2.841       2.566       2.165    
        1.821       1.577       1.373       1.208       1.017      0.8091      0.5564      0.3328      0.1500       0.000    
  34    10.00       9.772       9.618       9.484       9.322       9.122       8.912       8.682       8.467       8.301    
        8.136       7.971       7.799       7.593       7.406       7.222       7.044       6.877       6.664       6.388    
        6.131       5.896       5.631       5.297       4.944       4.657       4.491       4.398       4.307       4.215    
        4.134       4.060       3.958       3.811       3.614       3.306       2.991       2.752       2.424       2.067    
        1.851       1.688       1.492       1.279       1.027      0.7342      0.4499      0.2667      0.1106       0.000    
  35    10.00       9.810       9.672       9.536       9.363       9.138       8.899       8.644       8.441       8.298    
        8.187       8.022       7.832       7.614       7.414       7.283       7.153       6.982       6.762       6.498    
        6.253       6.021       5.776       5.404       5.007       4.734       4.551       4.442       4.337       4.232    
        4.149       4.060       3.940       3.753       3.449       3.126       2.914       2.660       2.321       2.102    
        1.950       1.764       1.567       1.359       1.040      0.6250      0.3460      0.2276      0.1156       0.000    
  36    10.00       9.833       9.713       9.583       9.400       9.135       8.843       8.604       8.457       8.346    
        8.197       8.010       7.837       7.644       7.469       7.338       7.214       7.064       6.890       6.647    
        6.392       6.146       5.847       5.450       5.058       4.781       4.607       4.480       4.353       4.242    
        4.152       4.038       3.850       3.574       3.296       3.068       2.864       2.598       2.323       2.175    
        2.019       1.853       1.653       1.385      0.9499      0.5273      0.3255      0.2085      0.1072       0.000    
  37    10.00       9.851       9.758       9.619       9.376       9.087       8.830       8.643       8.521       8.389    
        8.197       7.997       7.849       7.682       7.520       7.395       7.282       7.143       6.960       6.750    
        6.542       6.273       5.904       5.530       5.160       4.848       4.642       4.484       4.371       4.249    
        4.131       3.968       3.692       3.436       3.234       3.036       2.823       2.611       2.410       2.244    
        2.093       1.906       1.680       1.327      0.8729      0.5099      0.3058      0.1944      9.7496E-02   0.000    
  38    10.00       9.873       9.762       9.611       9.360       9.062       8.845       8.706       8.581       8.427    
        8.223       8.013       7.867       7.715       7.554       7.430       7.333       7.212       7.034       6.852    
        6.661       6.359       5.943       5.541       5.185       4.883       4.661       4.487       4.373       4.260    
        4.094       3.829       3.580       3.412       3.209       3.009       2.853       2.671       2.487       2.326    
        2.148       1.892       1.605       1.221      0.7699      0.4905      0.3452      0.2151      9.6530E-02   0.000    
  39    10.00       9.873       9.747       9.589       9.347       9.078       8.882       8.760       8.607       8.438    
        8.274       8.062       7.894       7.751       7.595       7.464       7.356       7.240       7.097       6.932    
        6.716       6.400       5.976       5.530       5.165       4.887       4.639       4.463       4.367       4.263    
        4.020       3.734       3.568       3.375       3.185       3.039       2.907       2.739       2.559       2.408    
        2.150       1.788       1.448       1.032      0.6892      0.5324      0.3965      0.2582      0.1328       0.000    
  40    10.00       9.863       9.754       9.593       9.371       9.146       8.955       8.795       8.615       8.460    
        8.337       8.132       7.922       7.777       7.633       7.487       7.368       7.276       7.152       6.963    
        6.720       6.362       5.934       5.517       5.141       4.855       4.583       4.442       4.357       4.219    
        3.999       3.772       3.547       3.343       3.205       3.077       2.950       2.794       2.626       2.428    
        2.080       1.683       1.314      0.9765      0.7405      0.5788      0.4433      0.3130      0.1537       0.000    
  41    10.00       9.882       9.795       9.639       9.412       9.178       8.998       8.855       8.679       8.494    
        8.349       8.166       7.973       7.835       7.670       7.495       7.390       7.294       7.140       6.940    
        6.693       6.347       5.922       5.513       5.139       4.760       4.505       4.424       4.335       4.230    
        4.050       3.778       3.549       3.384       3.244       3.129       2.988       2.837       2.664       2.356    
        1.948       1.560       1.238      0.9878      0.7834      0.6331      0.4880      0.3449      0.1817       0.000    
  42    10.00       9.912       9.816       9.668       9.473       9.252       9.049       8.902       8.745       8.545    
        8.361       8.186       8.024       7.892       7.720       7.533       7.410       7.281       7.115       6.891    
        6.613       6.239       5.870       5.467       4.982       4.641       4.499       4.435       4.357       4.242    
        4.032       3.793       3.575       3.408       3.294       3.169       3.044       2.881       2.606       2.199    
        1.840       1.549       1.268      0.9849      0.7948      0.6670      0.5277      0.3597      0.1996       0.000    
  43    10.00       9.931       9.829       9.678       9.488       9.306       9.126       8.962       8.772       8.568    
        8.399       8.224       8.065       7.943       7.784       7.577       7.416       7.270       7.045       6.760    
        6.487       6.129       5.785       5.330       4.871       4.640       4.525       4.452       4.375       4.255    
        4.055       3.835       3.625       3.458       3.348       3.224       3.061       2.829       2.429       2.066    
        1.840       1.582       1.285      0.9905      0.7886      0.6702      0.5625      0.3898      0.1826       0.000    
  44    10.00       9.924       9.838       9.683       9.511       9.380       9.202       8.983       8.769       8.600    
        8.433       8.260       8.120       7.994       7.811       7.596       7.413       7.239       6.974       6.684    
        6.357       5.997       5.634       5.176       4.827       4.654       4.557       4.491       4.407       4.256    
        4.049       3.873       3.686       3.530       3.418       3.253       3.036       2.704       2.293       2.050    
        1.844       1.573       1.277       1.008      0.8006      0.6734      0.5638      0.3824      0.1685       0.000    
  45    10.00       9.910       9.807       9.683       9.558       9.394       9.210       9.005       8.792       8.624    
        8.453       8.298       8.175       8.035       7.839       7.610       7.403       7.206       6.919       6.576    
        6.198       5.814       5.422       5.081       4.837       4.689       4.593       4.524       4.422       4.297    
        4.118       3.916       3.749       3.591       3.434       3.259       3.021       2.664       2.306       2.022    
        1.785       1.530       1.251       1.009      0.8276      0.7215      0.5573      0.3318      0.1513       0.000    
  46    10.00       9.892       9.786       9.687       9.549       9.363       9.187       9.020       8.813       8.634    
        8.484       8.339       8.217       8.052       7.845       7.642       7.422       7.164       6.852       6.479    
        6.032       5.648       5.331       5.070       4.884       4.753       4.637       4.544       4.463       4.324    
        4.135       3.961       3.799       3.620       3.463       3.293       3.025       2.613       2.235       1.981    
        1.757       1.510       1.247       1.034      0.8923      0.7558      0.5067      0.2490      0.1083       0.000    
  47    10.00       9.885       9.779       9.644       9.484       9.333       9.181       9.002       8.814       8.655    
        8.518       8.389       8.220       8.042       7.857       7.660       7.423       7.121       6.828       6.375    
        5.886       5.583       5.309       5.104       4.931       4.803       4.688       4.576       4.481       4.338    
        4.141       3.969       3.808       3.638       3.500       3.296       2.924       2.553       2.236       1.963    
        1.766       1.532       1.297       1.090      0.9156      0.6952      0.4182      0.2185      9.1010E-02   0.000    
  48    10.00       9.873       9.746       9.603       9.458       9.323       9.171       9.006       8.833       8.677    
        8.538       8.389       8.207       8.023       7.842       7.649       7.423       7.139       6.773       6.322    
        5.896       5.585       5.318       5.129       4.989       4.833       4.717       4.623       4.506       4.313    
        4.120       3.954       3.804       3.677       3.498       3.229       2.874       2.537       2.236       1.995    
        1.782       1.559       1.347       1.113      0.8512      0.5664      0.3582      0.2125      9.5996E-02   0.000    
  49    10.00       9.862       9.724       9.584       9.465       9.326       9.164       9.003       8.863       8.702    
        8.536       8.350       8.171       8.018       7.812       7.624       7.436       7.119       6.757       6.396    
        5.948       5.600       5.334       5.169       5.005       4.838       4.748       4.660       4.475       4.243    
        4.076       3.943       3.833       3.670       3.462       3.221       2.864       2.527       2.290       2.035    
        1.784       1.579       1.352       1.077      0.7551      0.5058      0.3587      0.2315      0.1188       0.000    
  50    10.00       9.867       9.729       9.586       9.457       9.321       9.177       9.018       8.871       8.728    
        8.525       8.331       8.167       7.962       7.752       7.609       7.430       7.184       6.826       6.469    
        6.012       5.575       5.343       5.176       5.005       4.869       4.762       4.645       4.427       4.205    
        4.067       3.957       3.829       3.660       3.467       3.236       2.875       2.530       2.299       2.069    
        1.830       1.572       1.317       1.022      0.7044      0.5178      0.3861      0.2617      0.1578       0.000    

 HEAD WILL BE SAVED ON UNIT   51 AT END OF TIME STEP  94, STRESS PERIOD    2

 DRAWDOWN WILL BE SAVED ON UNIT   52 AT END OF TIME STEP  94, STRESS PERIOD    2
1
  VOLUMETRIC BUDGET FOR ENTIRE MODEL AT END OF TIME STEP 94 IN STRESS PERIOD   2
  ------------------------------------------------------------------------------

     CUMULATIVE VOLUMES      L**3       RATES FOR THIS TIME STEP      L**3/T
     ------------------                 ------------------------

           IN:                                      IN:
           ---                                      ---
             STORAGE =       44766.2773               STORAGE =         425.1883
       CONSTANT HEAD =       37282.4375         CONSTANT HEAD =         432.6977
               WELLS =           0.0000                 WELLS =           0.0000

            TOTAL IN =       82048.7188              TOTAL IN =         857.8860

          OUT:                                     OUT:
          ----                                     ----
             STORAGE =       1.1143E-02               STORAGE =           0.0000
       CONSTANT HEAD =       35048.6992         CONSTANT HEAD =         357.8860
               WELLS =       47000.0000                 WELLS =         500.0000

           TOTAL OUT =       82048.7109             TOTAL OUT =         857.8860

            IN - OUT =       7.8125E-03              IN - OUT =           0.0000

 PERCENT DISCREPANCY =           0.00     PERCENT DISCREPANCY =           0.00






          TIME SUMMARY AT END OF TIME STEP  94 IN STRESS PERIOD    2
                    SECONDS     MINUTES      HOURS       DAYS        YEARS
                    -----------------------------------------------------------
   TIME STEP LENGTH  86400.      1440.0      24.000      1.0000     2.73785E-03
 STRESS PERIOD TIME 8.12160E+06 1.35360E+05  2256.0      94.000     0.25736    
         TOTAL TIME 8.20800E+06 1.36800E+05  2280.0      95.000     0.26010    
1
 
 SOLVING FOR HEAD 

 OUTPUT CONTROL FOR STRESS PERIOD    2   TIME STEP  95
    SAVE HEAD FOR ALL LAYERS
    SAVE DRAWDOWN FOR ALL LAYERS
    SAVE BUDGET
    PRINT HEAD FOR ALL LAYERS
    PRINT BUDGET
 UBDSV1 SAVING "         STORAGE" ON UNIT  53 AT TIME STEP 95, STRESS PERIOD   2
 UBDSV2 SAVING "   CONSTANT HEAD" ON UNIT  53 AT TIME STEP 95, STRESS PERIOD   2
 UBDSV1 SAVING "FLOW RIGHT FACE " ON UNIT  53 AT TIME STEP 95, STRESS PERIOD   2
 UBDSV1 SAVING "FLOW FRONT FACE " ON UNIT  53 AT TIME STEP 95, STRESS PERIOD   2
1
              HEAD IN LAYER   1 AT END OF TIME STEP  95 IN STRESS PERIOD    2
  ---------------------------------------------------------------------------

            1           2           3           4           5           6           7           8           9          10
           11          12          13          14          15          16          17          18          19          20
           21          22          23          24          25          26          27          28          29          30
           31          32          33          34          35          36          37          38          39          40
           41          42          43          44          45          46          47          48          49          50
 ........................................................................................................................
   1    10.00       9.948       9.897       9.837       9.789       9.749       9.696       9.622       9.541       9.467    
        9.304       9.100       8.949       8.781       8.603       8.423       8.256       8.065       7.810       7.556    
        7.383       7.186       6.927       6.665       6.431       6.228       5.940       5.678       5.494       5.302    
        5.139       5.036       4.926       4.803       4.685       4.539       4.382       4.170       3.927       3.661    
        3.317       2.965       2.502       1.993       1.608       1.331       1.124      0.8867      0.5207       0.000    
   2    10.00       9.943       9.888       9.837       9.797       9.758       9.698       9.623       9.549       9.449    
        9.289       9.106       8.937       8.784       8.619       8.433       8.235       8.037       7.799       7.544    
        7.355       7.193       6.916       6.632       6.424       6.195       5.916       5.667       5.454       5.274    
        5.137       5.042       4.950       4.818       4.680       4.535       4.355       4.157       3.922       3.618    
        3.296       2.997       2.511       2.006       1.666       1.419       1.181      0.9159      0.5532       0.000    
   3    10.00       9.934       9.888       9.852       9.814       9.773       9.709       9.620       9.529       9.420    
        9.275       9.113       8.950       8.795       8.598       8.364       8.170       8.000       7.781       7.556    
        7.364       7.132       6.857       6.606       6.380       6.123       5.854       5.607       5.389       5.257    
        5.147       5.057       4.965       4.820       4.674       4.519       4.341       4.119       3.856       3.623    
        3.340       2.933       2.458       2.096       1.808       1.523       1.230      0.9283      0.5245       0.000    
   4    10.00       9.934       9.893       9.861       9.834       9.792       9.718       9.614       9.507       9.398    
        9.260       9.114       8.950       8.755       8.512       8.295       8.156       7.964       7.752       7.576    
        7.310       7.014       6.773       6.550       6.331       6.022       5.724       5.526       5.381       5.270    
        5.172       5.078       4.976       4.807       4.627       4.486       4.297       4.067       3.844       3.642    
        3.320       2.871       2.514       2.211       1.902       1.578       1.226      0.8734      0.4480       0.000    
   5    10.00       9.939       9.902       9.870       9.846       9.802       9.723       9.604       9.485       9.376    
        9.257       9.107       8.896       8.667       8.461       8.289       8.115       7.936       7.737       7.488    
        7.177       6.933       6.733       6.508       6.224       5.903       5.660       5.521       5.402       5.288    
        5.175       5.060       4.944       4.779       4.595       4.424       4.255       4.076       3.875       3.609    
        3.244       2.904       2.600       2.294       1.958       1.581       1.139      0.7346      0.3806       0.000    
   6    10.00       9.949       9.913       9.881       9.848       9.799       9.716       9.587       9.482       9.365    
        9.232       9.044       8.812       8.621       8.431       8.234       8.056       7.895       7.672       7.387    
        7.111       6.879       6.673       6.393       6.085       5.844       5.649       5.520       5.386       5.266    
        5.167       5.042       4.896       4.726       4.546       4.401       4.256       4.095       3.884       3.597    
        3.280       2.953       2.643       2.335       1.971       1.515       1.039      0.6900      0.3554       0.000    
   7    10.00       9.956       9.924       9.891       9.855       9.796       9.683       9.559       9.450       9.304    
        9.167       8.966       8.754       8.558       8.360       8.159       7.986       7.836       7.578       7.275    
        7.025       6.787       6.557       6.286       6.026       5.807       5.637       5.479       5.334       5.244    
        5.143       5.002       4.848       4.680       4.528       4.399       4.263       4.100       3.886       3.628    
        3.314       2.977       2.657       2.318       1.959       1.481      0.9927      0.6564      0.3108       0.000    
   8    10.00       9.963       9.934       9.899       9.857       9.761       9.623       9.505       9.367       9.228    
        9.075       8.868       8.687       8.486       8.265       8.066       7.916       7.737       7.490       7.196    
        6.905       6.687       6.496       6.216       5.944       5.749       5.555       5.383       5.288       5.199    
        5.075       4.935       4.807       4.662       4.507       4.376       4.273       4.151       3.944       3.650    
        3.307       3.009       2.712       2.318       1.919       1.385      0.9189      0.6424      0.2974       0.000    
   9    10.00       9.971       9.938       9.897       9.826       9.699       9.551       9.412       9.291       9.147    
        8.966       8.782       8.601       8.406       8.177       7.992       7.850       7.637       7.393       7.089    
        6.838       6.621       6.346       6.057       5.827       5.653       5.461       5.320       5.228       5.125    
        5.013       4.889       4.768       4.641       4.510       4.389       4.290       4.182       3.969       3.650    
        3.337       3.075       2.763       2.385       1.794       1.192      0.8749      0.5427      0.2070       0.000    
  10    10.00       9.971       9.936       9.879       9.769       9.618       9.452       9.344       9.229       9.058    
        8.899       8.717       8.536       8.324       8.110       7.944       7.750       7.530       7.271       7.025    
        6.778       6.439       6.156       5.929       5.736       5.578       5.400       5.260       5.166       5.086    
        4.970       4.835       4.728       4.612       4.497       4.417       4.320       4.194       3.950       3.635    
        3.393       3.164       2.807       2.238       1.553       1.118      0.7928      0.4842      0.2417       0.000    
  11    10.00       9.971       9.925       9.835       9.711       9.540       9.394       9.303       9.165       9.019    
        8.866       8.674       8.456       8.228       8.049       7.867       7.685       7.447       7.195       6.954    
        6.594       6.269       6.045       5.843       5.656       5.480       5.310       5.202       5.127       5.046    
        4.912       4.788       4.702       4.600       4.510       4.421       4.311       4.175       3.945       3.696    
        3.443       3.144       2.755       2.128       1.488       1.049      0.7419      0.5632      0.3113       0.000    
  12    10.00       9.968       9.904       9.787       9.624       9.454       9.338       9.246       9.125       8.993    
        8.825       8.620       8.400       8.199       8.017       7.816       7.606       7.360       7.103       6.770    
        6.416       6.170       5.950       5.743       5.536       5.362       5.245       5.167       5.069       4.960    
        4.840       4.753       4.678       4.600       4.523       4.433       4.317       4.154       3.944       3.721    
        3.448       3.124       2.592       1.885       1.340       1.032      0.8228      0.5972      0.3407       0.000    
  13    10.00       9.957       9.856       9.696       9.526       9.379       9.285       9.204       9.101       8.973    
        8.795       8.580       8.379       8.217       8.005       7.758       7.512       7.246       6.958       6.633    
        6.323       6.056       5.816       5.601       5.402       5.277       5.207       5.091       4.964       4.866    
        4.793       4.726       4.660       4.597       4.522       4.444       4.341       4.156       3.943       3.680    
        3.367       2.956       2.337       1.765       1.370       1.109      0.8644      0.5984      0.2959       0.000    
  14    10.00       9.922       9.776       9.599       9.441       9.326       9.262       9.188       9.089       8.947    
        8.750       8.566       8.401       8.232       7.989       7.697       7.432       7.130       6.812       6.473    
        6.172       5.905       5.670       5.457       5.304       5.219       5.130       4.988       4.882       4.811    
        4.760       4.697       4.642       4.584       4.517       4.456       4.333       4.144       3.921       3.591    
        3.223       2.738       2.263       1.848       1.457       1.150      0.8792      0.5986      0.2669       0.000    
  15    10.00       9.853       9.691       9.533       9.406       9.317       9.246       9.176       9.077       8.944    
        8.770       8.590       8.426       8.185       7.899       7.616       7.323       7.011       6.631       6.272    
        5.994       5.736       5.516       5.357       5.243       5.154       5.042       4.911       4.824       4.776    
        4.716       4.666       4.625       4.569       4.508       4.442       4.309       4.132       3.848       3.494    
        3.114       2.682       2.299       1.873       1.544       1.218      0.8902      0.5931      0.2435       0.000    
  16    10.00       9.828       9.653       9.507       9.398       9.316       9.243       9.178       9.082       8.944    
        8.779       8.606       8.401       8.092       7.778       7.543       7.253       6.836       6.404       6.073    
        5.788       5.576       5.397       5.262       5.136       5.056       4.933       4.828       4.765       4.708    
        4.666       4.638       4.595       4.543       4.488       4.410       4.289       4.072       3.765       3.447    
        3.125       2.712       2.284       1.909       1.600       1.258      0.8880      0.5319      0.2004       0.000    
  17    10.00       9.806       9.628       9.511       9.414       9.331       9.260       9.186       9.081       8.952    
        8.797       8.577       8.295       7.962       7.698       7.475       7.117       6.646       6.211       5.893    
        5.668       5.431       5.233       5.088       4.985       4.883       4.777       4.713       4.663       4.637    
        4.626       4.599       4.556       4.505       4.446       4.362       4.219       4.029       3.785       3.456    
        3.092       2.658       2.264       1.934       1.618       1.267      0.9069      0.5543      0.2346       0.000    
  18    10.00       9.794       9.627       9.526       9.438       9.358       9.287       9.197       9.094       8.955    
        8.768       8.507       8.193       7.911       7.652       7.323       6.908       6.479       6.096       5.784    
        5.507       5.204       5.034       4.914       4.825       4.707       4.640       4.585       4.555       4.567    
        4.567       4.545       4.502       4.445       4.385       4.297       4.163       4.013       3.802       3.501    
        3.030       2.570       2.249       1.936       1.668       1.300      0.9029      0.5444      0.2348       0.000    
  19    10.00       9.803       9.664       9.560       9.465       9.385       9.301       9.217       9.122       8.960    
        8.740       8.461       8.150       7.836       7.492       7.136       6.753       6.341       5.955       5.625    
        5.303       5.042       4.907       4.815       4.687       4.583       4.527       4.476       4.470       4.477    
        4.489       4.479       4.428       4.379       4.332       4.266       4.143       3.980       3.769       3.416    
        2.943       2.554       2.236       1.929       1.628       1.248      0.8685      0.5417      0.2556       0.000    
  20    10.00       9.814       9.695       9.603       9.512       9.417       9.317       9.227       9.131       8.966    
        8.726       8.435       8.073       7.665       7.271       6.982       6.597       6.157       5.820       5.493    
        5.207       4.991       4.828       4.687       4.523       4.451       4.415       4.391       4.397       4.400    
        4.408       4.389       4.351       4.327       4.292       4.228       4.086       3.923       3.684       3.288    
        2.882       2.574       2.207       1.857       1.529       1.154      0.8713      0.5384      0.2390       0.000    
  21    10.00       9.841       9.734       9.641       9.541       9.450       9.340       9.242       9.137       8.950    
        8.690       8.334       7.881       7.405       7.042       6.780       6.420       6.100       5.785       5.432    
        5.160       4.922       4.717       4.450       4.314       4.278       4.221       4.262       4.298       4.296    
        4.293       4.268       4.270       4.262       4.239       4.154       4.018       3.879       3.531       3.120    
        2.819       2.485       2.110       1.783       1.435       1.107      0.7890      0.4741      0.2384       0.000    
  22    10.00       9.875       9.763       9.662       9.565       9.479       9.353       9.226       9.103       8.910    
        8.591       8.143       7.633       7.188       6.879       6.607       6.334       6.104       5.756       5.411    
        5.125       4.783       4.414       4.137       4.035       3.934       3.948       4.055       4.094       4.114    
        4.132       4.133       4.165       4.192       4.170       4.086       3.956       3.698       3.302       3.041    
        2.717       2.357       2.020       1.705       1.409       1.019      0.6846      0.4543      0.2556       0.000    
  23    10.00       9.876       9.768       9.677       9.575       9.460       9.318       9.202       9.094       8.850    
        8.459       7.978       7.515       7.128       6.811       6.581       6.325       6.022       5.691       5.415    
        5.018       4.517       4.122       3.841       3.427       3.426       3.646       3.767       3.854       3.941    
        3.980       4.015       4.058       4.097       4.080       3.999       3.808       3.516       3.199       2.877    
        2.567       2.269       1.944       1.697       1.322      0.9261      0.6655      0.4366      0.2269       0.000    
  24    10.00       9.903       9.781       9.661       9.543       9.411       9.283       9.184       9.062       8.775    
        8.329       7.876       7.492       7.154       6.851       6.550       6.238       5.963       5.701       5.378    
        4.903       4.406       3.938       3.087       2.182       2.706       3.209       3.502       3.668       3.804    
        3.878       3.927       3.977       3.995       3.976       3.869       3.658       3.422       3.077       2.738    
        2.496       2.210       1.903       1.587       1.183      0.8588      0.6395      0.4086      0.1805       0.000    
  25    10.00       9.895       9.753       9.606       9.468       9.348       9.250       9.150       9.000       8.702    
        8.235       7.813       7.519       7.203       6.851       6.540       6.247       6.007       5.762       5.346    
        4.802       4.315       3.567       2.188     -0.6866       2.081       2.877       3.343       3.588       3.730    
        3.816       3.875       3.916       3.923       3.889       3.767       3.544       3.266       2.985       2.703    
        2.428       2.120       1.770       1.435       1.052      0.7875      0.6357      0.3965      0.1470       0.000    
  26    10.00       9.868       9.686       9.521       9.409       9.312       9.216       9.093       8.916       8.548    
        8.115       7.820       7.537       7.222       6.893       6.593       6.317       6.077       5.769       5.326    
        4.848       4.309       3.654       2.906       2.220       2.577       3.050       3.377       3.577       3.709    
        3.790       3.850       3.877       3.871       3.817       3.667       3.413       3.190       2.966       2.661    
        2.378       2.029       1.628       1.267      0.9552      0.7692      0.6001      0.3524      0.1501       0.000    
  27    10.00       9.839       9.645       9.491       9.397       9.271       9.144       8.989       8.753       8.405    
        8.098       7.837       7.550       7.243       6.920       6.682       6.490       6.164       5.775       5.323    
        4.918       4.526       3.996       3.501       3.109       3.165       3.344       3.504       3.630       3.724    
        3.809       3.859       3.867       3.841       3.763       3.588       3.386       3.189       2.928       2.641    
        2.349       1.927       1.467       1.128      0.9108      0.7556      0.5698      0.3719      0.1795       0.000    
  28    10.00       9.818       9.676       9.503       9.344       9.189       9.048       8.866       8.631       8.362    
        8.110       7.876       7.592       7.249       6.961       6.767       6.553       6.196       5.746       5.347    
        5.057       4.762       4.343       3.955       3.704       3.618       3.609       3.657       3.738       3.815    
        3.871       3.883       3.875       3.827       3.722       3.562       3.398       3.164       2.891       2.601    
        2.242       1.844       1.388       1.052      0.9005      0.7519      0.5868      0.3881      0.1801       0.000    
  29    10.00       9.824       9.647       9.465       9.274       9.125       8.966       8.764       8.566       8.352    
        8.127       7.896       7.620       7.330       7.081       6.852       6.566       6.171       5.760       5.448    
        5.200       4.940       4.593       4.246       4.040       3.927       3.855       3.853       3.893       3.919    
        3.923       3.917       3.890       3.821       3.697       3.557       3.402       3.182       2.879       2.511    
        2.182       1.758       1.302       1.038      0.9033      0.7571      0.5822      0.3790      0.1886       0.000    
  30    10.00       9.799       9.621       9.402       9.208       9.072       8.902       8.725       8.571       8.379    
        8.150       7.900       7.649       7.417       7.196       6.937       6.574       6.206       5.875       5.576    
        5.361       5.102       4.785       4.483       4.235       4.136       4.070       4.046       4.023       4.001    
        3.977       3.953       3.905       3.813       3.697       3.583       3.426       3.144       2.766       2.387    
        2.050       1.658       1.311       1.066      0.9241      0.7589      0.5719      0.3971      0.1949       0.000    
  31    10.00       9.773       9.567       9.358       9.184       9.042       8.881       8.724       8.572       8.386    
        8.160       7.910       7.692       7.501       7.294       7.003       6.644       6.322       6.059       5.791    
        5.560       5.266       4.954       4.698       4.446       4.286       4.223       4.160       4.114       4.067    
        4.035       3.986       3.917       3.825       3.710       3.580       3.332       3.014       2.698       2.325    
        2.005       1.613       1.273       1.094      0.9415      0.7857      0.5910      0.3975      0.1885       0.000    
  32    10.00       9.756       9.535       9.356       9.209       9.067       8.900       8.721       8.538       8.363    
        8.141       7.925       7.731       7.521       7.330       7.084       6.803       6.559       6.287       6.009    
        5.775       5.500       5.183       4.908       4.646       4.419       4.334       4.253       4.188       4.123    
        4.075       4.026       3.933       3.814       3.704       3.524       3.215       2.913       2.632       2.290    
        1.915       1.548       1.295       1.157      0.9894      0.7925      0.5865      0.3776      0.1885       0.000    
  33    10.00       9.749       9.560       9.417       9.270       9.106       8.905       8.707       8.511       8.312    
        8.127       7.946       7.756       7.555       7.343       7.151       6.946       6.737       6.514       6.241    
        5.969       5.711       5.443       5.121       4.799       4.541       4.413       4.334       4.255       4.172    
        4.112       4.043       3.943       3.824       3.663       3.413       3.094       2.836       2.561       2.161    
        1.818       1.574       1.371       1.206       1.015      0.8079      0.5556      0.3323      0.1498       0.000    
  34    10.00       9.771       9.617       9.483       9.320       9.120       8.909       8.678       8.463       8.297    
        8.131       7.966       7.794       7.588       7.400       7.215       7.037       6.870       6.657       6.380    
        6.123       5.888       5.623       5.288       4.936       4.648       4.482       4.389       4.298       4.206    
        4.125       4.052       3.949       3.803       3.606       3.299       2.986       2.747       2.420       2.064    
        1.848       1.686       1.490       1.277       1.026      0.7331      0.4493      0.2663      0.1105       0.000    
  35    10.00       9.809       9.671       9.535       9.361       9.136       8.896       8.641       8.437       8.294    
        8.183       8.017       7.827       7.608       7.409       7.277       7.146       6.976       6.755       6.491    
        6.246       6.013       5.768       5.395       4.998       4.725       4.542       4.433       4.329       4.223    
        4.141       4.052       3.932       3.745       3.443       3.121       2.909       2.656       2.318       2.100    
        1.947       1.762       1.565       1.357       1.038      0.6242      0.3456      0.2273      0.1154       0.000    
  36    10.00       9.832       9.712       9.582       9.399       9.133       8.840       8.600       8.453       8.343    
        8.193       8.005       7.832       7.639       7.463       7.332       7.208       7.058       6.883       6.640    
        6.385       6.138       5.839       5.442       5.050       4.773       4.599       4.471       4.345       4.234    
        4.144       4.030       3.843       3.567       3.291       3.063       2.860       2.595       2.319       2.172    
        2.017       1.850       1.651       1.383      0.9487      0.5266      0.3251      0.2082      0.1070       0.000    
  37    10.00       9.850       9.758       9.618       9.375       9.085       8.827       8.640       8.518       8.385    
        8.193       7.993       7.844       7.677       7.514       7.389       7.277       7.137       6.953       6.744    
        6.535       6.266       5.896       5.522       5.152       4.840       4.634       4.476       4.363       4.241    
        4.123       3.961       3.686       3.430       3.229       3.031       2.819       2.607       2.407       2.241    
        2.091       1.903       1.677       1.325      0.8718      0.5093      0.3054      0.1941      9.7379E-02   0.000    
  38    10.00       9.873       9.762       9.610       9.358       9.060       8.842       8.703       8.577       8.423    
        8.219       8.009       7.863       7.710       7.548       7.424       7.327       7.206       7.028       6.846    
        6.654       6.352       5.936       5.534       5.178       4.876       4.654       4.480       4.366       4.254    
        4.087       3.823       3.574       3.407       3.205       3.005       2.850       2.667       2.483       2.323    
        2.145       1.890       1.603       1.220      0.7690      0.4900      0.3448      0.2148      9.6422E-02   0.000    
  39    10.00       9.872       9.747       9.588       9.346       9.076       8.879       8.757       8.604       8.435    
        8.270       8.057       7.889       7.746       7.590       7.459       7.350       7.234       7.091       6.926    
        6.710       6.393       5.970       5.523       5.158       4.880       4.633       4.457       4.361       4.257    
        4.015       3.729       3.563       3.371       3.181       3.035       2.903       2.736       2.556       2.405    
        2.148       1.786       1.446       1.031      0.6885      0.5319      0.3961      0.2580      0.1327       0.000    
  40    10.00       9.863       9.753       9.592       9.369       9.144       8.953       8.792       8.612       8.456    
        8.333       8.128       7.918       7.772       7.628       7.482       7.362       7.270       7.146       6.957    
        6.714       6.356       5.928       5.511       5.135       4.849       4.577       4.436       4.351       4.214    
        3.994       3.767       3.542       3.339       3.202       3.074       2.947       2.790       2.623       2.425    
        2.077       1.681       1.313      0.9755      0.7398      0.5782      0.4428      0.3126      0.1535       0.000    
  41    10.00       9.882       9.795       9.639       9.410       9.177       8.996       8.852       8.676       8.491    
        8.346       8.162       7.969       7.831       7.665       7.490       7.385       7.289       7.135       6.934    
        6.687       6.342       5.916       5.507       5.133       4.755       4.500       4.420       4.330       4.226    
        4.046       3.774       3.545       3.380       3.240       3.125       2.985       2.834       2.661       2.354    
        1.945       1.558       1.236      0.9868      0.7826      0.6325      0.4875      0.3445      0.1815       0.000    
  42    10.00       9.912       9.816       9.667       9.472       9.251       9.047       8.900       8.743       8.542    
        8.357       8.182       8.020       7.888       7.716       7.528       7.405       7.276       7.110       6.886    
        6.608       6.234       5.865       5.462       4.977       4.636       4.494       4.431       4.353       4.237    
        4.028       3.789       3.572       3.404       3.290       3.166       3.041       2.877       2.603       2.197    
        1.838       1.548       1.267      0.9840      0.7940      0.6664      0.5272      0.3594      0.1994       0.000    
  43    10.00       9.931       9.829       9.678       9.487       9.304       9.124       8.960       8.770       8.565    
        8.396       8.221       8.061       7.939       7.780       7.573       7.411       7.265       7.040       6.756    
        6.483       6.125       5.781       5.326       4.867       4.635       4.521       4.447       4.371       4.250    
        4.051       3.831       3.621       3.454       3.344       3.220       3.058       2.826       2.426       2.064    
        1.839       1.580       1.284      0.9896      0.7879      0.6696      0.5620      0.3894      0.1825       0.000    
  44    10.00       9.924       9.838       9.682       9.510       9.379       9.201       8.981       8.767       8.597    
        8.430       8.257       8.117       7.990       7.808       7.592       7.409       7.235       6.970       6.679    
        6.353       5.992       5.630       5.172       4.824       4.650       4.553       4.486       4.403       4.252    
        4.046       3.869       3.683       3.527       3.414       3.249       3.033       2.701       2.291       2.048    
        1.842       1.572       1.276       1.007      0.7999      0.6729      0.5633      0.3820      0.1684       0.000    
  45    10.00       9.909       9.807       9.682       9.558       9.393       9.209       9.003       8.790       8.622    
        8.451       8.296       8.172       8.032       7.836       7.606       7.400       7.202       6.915       6.572    
        6.194       5.810       5.418       5.078       4.834       4.685       4.590       4.521       4.418       4.293    
        4.114       3.913       3.746       3.587       3.431       3.256       3.018       2.662       2.304       2.020    
        1.783       1.528       1.250       1.008      0.8269      0.7209      0.5569      0.3316      0.1512       0.000    
  46    10.00       9.892       9.786       9.687       9.548       9.362       9.186       9.019       8.811       8.632    
        8.482       8.337       8.214       8.050       7.842       7.639       7.419       7.160       6.849       6.476    
        6.029       5.644       5.328       5.067       4.881       4.750       4.633       4.541       4.460       4.320    
        4.131       3.958       3.796       3.616       3.460       3.290       3.023       2.611       2.233       1.980    
        1.755       1.509       1.246       1.033      0.8917      0.7552      0.5063      0.2489      0.1082       0.000    
  47    10.00       9.885       9.778       9.643       9.484       9.332       9.180       9.000       8.812       8.653    
        8.516       8.387       8.218       8.040       7.854       7.657       7.420       7.119       6.825       6.372    
        5.883       5.580       5.306       5.100       4.927       4.799       4.685       4.572       4.477       4.334    
        4.137       3.966       3.804       3.634       3.497       3.293       2.922       2.551       2.234       1.962    
        1.765       1.531       1.296       1.090      0.9149      0.6947      0.4179      0.2184      9.0945E-02   0.000    
  48    10.00       9.873       9.745       9.602       9.457       9.323       9.169       9.005       8.831       8.675    
        8.536       8.387       8.204       8.021       7.840       7.646       7.421       7.136       6.770       6.319    
        5.893       5.582       5.314       5.126       4.985       4.830       4.714       4.620       4.502       4.310    
        4.117       3.950       3.801       3.674       3.495       3.226       2.871       2.536       2.234       1.994    
        1.781       1.558       1.347       1.112      0.8507      0.5661      0.3580      0.2123      9.5934E-02   0.000    
  49    10.00       9.862       9.723       9.583       9.464       9.325       9.163       9.002       8.862       8.700    
        8.534       8.348       8.169       8.016       7.809       7.622       7.434       7.117       6.754       6.394    
        5.945       5.597       5.331       5.166       5.002       4.835       4.744       4.656       4.472       4.239    
        4.073       3.940       3.830       3.667       3.459       3.218       2.862       2.525       2.289       2.033    
        1.783       1.578       1.352       1.076      0.7547      0.5055      0.3585      0.2314      0.1187       0.000    
  50    10.00       9.867       9.729       9.586       9.457       9.320       9.176       9.017       8.870       8.726    
        8.523       8.329       8.164       7.959       7.750       7.606       7.428       7.182       6.823       6.466    
        6.009       5.572       5.340       5.173       5.002       4.866       4.758       4.641       4.424       4.202    
        4.064       3.953       3.827       3.657       3.464       3.234       2.873       2.528       2.298       2.068    
        1.829       1.571       1.316       1.021      0.7039      0.5175      0.3859      0.2615      0.1577       0.000    

 HEAD WILL BE SAVED ON UNIT   51 AT END OF TIME STEP  95, STRESS PERIOD    2

 DRAWDOWN WILL BE SAVED ON UNIT   52 AT END OF TIME STEP  95, STRESS PERIOD    2
1
  VOLUMETRIC BUDGET FOR ENTIRE MODEL AT END OF TIME STEP 95 IN STRESS PERIOD   2
  ------------------------------------------------------------------------------

     CUMULATIVE VOLUMES      L**3       RATES FOR THIS TIME STEP      L**3/T
     ------------------                 ------------------------

           IN:                                      IN:
           ---                                      ---
             STORAGE =       45190.0430               STORAGE =         423.7649
       CONSTANT HEAD =       37716.1445         CONSTANT HEAD =         433.7079
               WELLS =           0.0000                 WELLS =           0.0000

            TOTAL IN =       82906.1875              TOTAL IN =         857.4728

          OUT:                                     OUT:
          ----                                     ----
             STORAGE =       1.1143E-02               STORAGE =           0.0000
       CONSTANT HEAD =       35406.1719         CONSTANT HEAD =         357.4724
               WELLS =       47500.0000                 WELLS =         500.0000

           TOTAL OUT =       82906.1797             TOTAL OUT =         857.4724

            IN - OUT =       7.8125E-03              IN - OUT =       3.6621E-04

 PERCENT DISCREPANCY =           0.00     PERCENT DISCREPANCY =           0.00






          TIME SUMMARY AT END OF TIME STEP  95 IN STRESS PERIOD    2
                    SECONDS     MINUTES      HOURS       DAYS        YEARS
                    -----------------------------------------------------------
   TIME STEP LENGTH  86400.      1440.0      24.000      1.0000     2.73785E-03
 STRESS PERIOD TIME 8.20800E+06 1.36800E+05  2280.0      95.000     0.26010    
         TOTAL TIME 8.29440E+06 1.38240E+05  2304.0      96.000     0.26283    
1
 
 SOLVING FOR HEAD 

 OUTPUT CONTROL FOR STRESS PERIOD    2   TIME STEP  96
    SAVE HEAD FOR ALL LAYERS
    SAVE DRAWDOWN FOR ALL LAYERS
    SAVE BUDGET
    PRINT HEAD FOR ALL LAYERS
    PRINT BUDGET
 UBDSV1 SAVING "         STORAGE" ON UNIT  53 AT TIME STEP 96, STRESS PERIOD   2
 UBDSV2 SAVING "   CONSTANT HEAD" ON UNIT  53 AT TIME STEP 96, STRESS PERIOD   2
 UBDSV1 SAVING "FLOW RIGHT FACE " ON UNIT  53 AT TIME STEP 96, STRESS PERIOD   2
 UBDSV1 SAVING "FLOW FRONT FACE " ON UNIT  53 AT TIME STEP 96, STRESS PERIOD   2
1
              HEAD IN LAYER   1 AT END OF TIME STEP  96 IN STRESS PERIOD    2
  ---------------------------------------------------------------------------

            1           2           3           4           5           6           7           8           9          10
           11          12          13          14          15          16          17          18          19          20
           21          22          23          24          25          26          27          28          29          30
           31          32          33          34          35          36          37          38          39          40
           41          42          43          44          45          46          47          48          49          50
 ........................................................................................................................
   1    10.00       9.948       9.897       9.837       9.789       9.749       9.695       9.621       9.540       9.466    
        9.303       9.098       8.947       8.779       8.600       8.420       8.253       8.062       7.806       7.552    
        7.379       7.181       6.922       6.660       6.425       6.223       5.935       5.672       5.488       5.297    
        5.134       5.030       4.920       4.797       4.679       4.533       4.377       4.165       3.923       3.657    
        3.313       2.962       2.499       1.990       1.607       1.330       1.123      0.8857      0.5201       0.000    
   2    10.00       9.943       9.888       9.837       9.796       9.757       9.698       9.622       9.548       9.448    
        9.288       9.105       8.935       8.782       8.617       8.430       8.231       8.034       7.796       7.540    
        7.351       7.189       6.912       6.627       6.419       6.189       5.910       5.661       5.449       5.268    
        5.131       5.036       4.944       4.813       4.674       4.530       4.350       4.152       3.917       3.614    
        3.292       2.994       2.508       2.004       1.664       1.418       1.180      0.9149      0.5526       0.000    
   3    10.00       9.934       9.888       9.852       9.813       9.773       9.709       9.619       9.529       9.419    
        9.274       9.111       8.948       8.793       8.596       8.361       8.167       7.997       7.777       7.552    
        7.359       7.127       6.852       6.601       6.375       6.117       5.848       5.601       5.383       5.251    
        5.141       5.051       4.959       4.815       4.669       4.514       4.335       4.114       3.851       3.619    
        3.336       2.929       2.455       2.094       1.806       1.521       1.228      0.9273      0.5239       0.000    
   4    10.00       9.934       9.893       9.861       9.834       9.791       9.717       9.613       9.506       9.397    
        9.258       9.112       8.948       8.752       8.509       8.292       8.153       7.960       7.748       7.572    
        7.306       7.009       6.768       6.545       6.326       6.016       5.718       5.520       5.375       5.263    
        5.166       5.072       4.971       4.802       4.622       4.481       4.291       4.062       3.840       3.638    
        3.316       2.868       2.511       2.208       1.900       1.577       1.224      0.8725      0.4475       0.000    
   5    10.00       9.939       9.901       9.870       9.845       9.801       9.723       9.604       9.484       9.375    
        9.256       9.105       8.893       8.664       8.458       8.286       8.112       7.932       7.733       7.484    
        7.172       6.928       6.728       6.502       6.218       5.897       5.654       5.514       5.396       5.282    
        5.169       5.054       4.938       4.773       4.589       4.419       4.249       4.071       3.870       3.605    
        3.240       2.900       2.597       2.292       1.956       1.579       1.137      0.7338      0.3802       0.000    
   6    10.00       9.949       9.912       9.881       9.848       9.799       9.715       9.586       9.481       9.364    
        9.231       9.043       8.809       8.619       8.428       8.231       8.052       7.891       7.668       7.383    
        7.106       6.874       6.667       6.387       6.079       5.838       5.642       5.514       5.379       5.260    
        5.161       5.035       4.890       4.720       4.541       4.396       4.251       4.090       3.879       3.593    
        3.276       2.949       2.640       2.333       1.969       1.514       1.038      0.6892      0.3550       0.000    
   7    10.00       9.956       9.924       9.891       9.855       9.796       9.683       9.558       9.449       9.303    
        9.165       8.964       8.751       8.555       8.357       8.156       7.982       7.832       7.574       7.271    
        7.020       6.781       6.552       6.280       6.020       5.801       5.631       5.472       5.327       5.238    
        5.136       4.995       4.842       4.674       4.522       4.393       4.258       4.095       3.880       3.623    
        3.310       2.974       2.654       2.315       1.956       1.479      0.9916      0.6557      0.3105       0.000    
   8    10.00       9.963       9.934       9.898       9.857       9.761       9.622       9.504       9.366       9.227    
        9.073       8.866       8.685       8.483       8.262       8.062       7.912       7.733       7.486       7.191    
        6.899       6.681       6.490       6.209       5.937       5.742       5.549       5.376       5.281       5.192    
        5.069       4.929       4.800       4.656       4.501       4.370       4.267       4.145       3.939       3.645    
        3.303       3.005       2.708       2.316       1.916       1.384      0.9179      0.6416      0.2970       0.000    
   9    10.00       9.971       9.938       9.897       9.826       9.699       9.550       9.411       9.290       9.146    
        8.964       8.780       8.598       8.403       8.174       7.988       7.846       7.632       7.388       7.084    
        6.833       6.615       6.340       6.050       5.820       5.646       5.454       5.313       5.220       5.118    
        5.006       4.882       4.761       4.634       4.503       4.383       4.284       4.176       3.963       3.645    
        3.332       3.070       2.759       2.382       1.792       1.191      0.8738      0.5421      0.2067       0.000    
  10    10.00       9.971       9.936       9.878       9.769       9.617       9.451       9.342       9.227       9.056    
        8.897       8.714       8.533       8.320       8.106       7.939       7.745       7.525       7.266       7.020    
        6.772       6.433       6.149       5.922       5.729       5.571       5.393       5.252       5.159       5.078    
        4.962       4.828       4.720       4.605       4.490       4.410       4.313       4.188       3.944       3.630    
        3.389       3.160       2.803       2.235       1.551       1.116      0.7919      0.4836      0.2414       0.000    
  11    10.00       9.971       9.925       9.834       9.710       9.539       9.392       9.301       9.163       9.016    
        8.864       8.671       8.453       8.224       8.045       7.863       7.680       7.442       7.190       6.948    
        6.588       6.262       6.038       5.835       5.648       5.473       5.302       5.195       5.120       5.038    
        4.904       4.780       4.695       4.593       4.503       4.414       4.304       4.169       3.939       3.691    
        3.438       3.140       2.752       2.125       1.486       1.048      0.7410      0.5625      0.3109       0.000    
  12    10.00       9.968       9.903       9.787       9.624       9.453       9.336       9.244       9.123       8.991    
        8.823       8.617       8.397       8.195       8.012       7.811       7.600       7.355       7.098       6.764    
        6.409       6.163       5.943       5.735       5.528       5.354       5.237       5.159       5.061       4.952    
        4.833       4.745       4.670       4.593       4.515       4.426       4.310       4.148       3.938       3.715    
        3.443       3.120       2.588       1.883       1.339       1.031      0.8218      0.5964      0.3402       0.000    
  13    10.00       9.957       9.856       9.695       9.525       9.378       9.283       9.202       9.099       8.971    
        8.792       8.577       8.375       8.213       8.001       7.753       7.506       7.240       6.952       6.626    
        6.315       6.049       5.809       5.593       5.393       5.268       5.198       5.083       4.955       4.858    
        4.785       4.719       4.652       4.589       4.514       4.437       4.334       4.149       3.937       3.674    
        3.362       2.951       2.333       1.763       1.369       1.107      0.8633      0.5976      0.2955       0.000    
  14    10.00       9.921       9.776       9.598       9.440       9.324       9.261       9.186       9.086       8.944    
        8.747       8.562       8.397       8.228       7.985       7.692       7.426       7.124       6.805       6.466    
        6.164       5.897       5.662       5.449       5.296       5.210       5.122       4.980       4.873       4.802    
        4.752       4.689       4.634       4.576       4.509       4.449       4.326       4.137       3.914       3.585    
        3.218       2.734       2.260       1.846       1.455       1.149      0.8781      0.5979      0.2665       0.000    
  15    10.00       9.853       9.690       9.531       9.404       9.315       9.244       9.173       9.075       8.942    
        8.767       8.586       8.422       8.181       7.894       7.611       7.317       7.005       6.625       6.264    
        5.986       5.728       5.508       5.348       5.234       5.145       5.033       4.902       4.816       4.767    
        4.707       4.658       4.617       4.561       4.500       4.434       4.302       4.125       3.842       3.488    
        3.109       2.678       2.296       1.870       1.542       1.216      0.8890      0.5923      0.2432       0.000    
  16    10.00       9.828       9.652       9.506       9.396       9.315       9.242       9.176       9.080       8.941    
        8.776       8.603       8.397       8.088       7.773       7.537       7.247       6.829       6.396       6.065    
        5.780       5.567       5.388       5.254       5.128       5.048       4.925       4.819       4.756       4.700    
        4.657       4.629       4.587       4.535       4.480       4.403       4.281       4.065       3.758       3.441    
        3.119       2.707       2.281       1.906       1.598       1.256      0.8868      0.5312      0.2001       0.000    
  17    10.00       9.805       9.627       9.510       9.412       9.329       9.258       9.184       9.078       8.949    
        8.794       8.574       8.291       7.957       7.692       7.469       7.110       6.639       6.203       5.885    
        5.660       5.423       5.224       5.079       4.976       4.874       4.768       4.704       4.654       4.628    
        4.617       4.590       4.547       4.496       4.438       4.354       4.211       4.022       3.779       3.450    
        3.087       2.654       2.260       1.931       1.616       1.265      0.9056      0.5536      0.2343       0.000    
  18    10.00       9.793       9.626       9.525       9.436       9.357       9.285       9.195       9.092       8.952    
        8.765       8.504       8.189       7.906       7.647       7.317       6.901       6.472       6.088       5.776    
        5.498       5.195       5.025       4.905       4.815       4.698       4.631       4.576       4.545       4.558    
        4.559       4.536       4.493       4.437       4.376       4.289       4.155       4.005       3.795       3.494    
        3.025       2.566       2.246       1.933       1.665       1.298      0.9017      0.5437      0.2345       0.000    
  19    10.00       9.802       9.663       9.558       9.464       9.383       9.299       9.215       9.119       8.957    
        8.737       8.457       8.146       7.831       7.487       7.130       6.746       6.333       5.946       5.617    
        5.294       5.032       4.897       4.806       4.677       4.574       4.517       4.467       4.460       4.468    
        4.480       4.470       4.419       4.370       4.323       4.258       4.135       3.972       3.762       3.409    
        2.938       2.550       2.232       1.926       1.626       1.247      0.8673      0.5410      0.2553       0.000    
  20    10.00       9.813       9.694       9.602       9.511       9.415       9.316       9.225       9.128       8.963    
        8.722       8.431       8.069       7.659       7.265       6.975       6.590       6.148       5.811       5.484    
        5.198       4.982       4.818       4.678       4.514       4.442       4.406       4.381       4.388       4.390    
        4.399       4.380       4.341       4.318       4.283       4.219       4.078       3.916       3.677       3.282    
        2.877       2.569       2.203       1.854       1.526       1.152      0.8701      0.5376      0.2387       0.000    
  21    10.00       9.840       9.733       9.640       9.540       9.449       9.339       9.240       9.135       8.947    
        8.687       8.330       7.876       7.399       7.035       6.772       6.412       6.092       5.776       5.423    
        5.151       4.912       4.707       4.440       4.305       4.268       4.211       4.252       4.289       4.286    
        4.283       4.258       4.260       4.253       4.230       4.145       4.010       3.872       3.524       3.114    
        2.814       2.481       2.107       1.781       1.433       1.105      0.7879      0.4735      0.2381       0.000    
  22    10.00       9.874       9.762       9.661       9.564       9.477       9.352       9.224       9.100       8.907    
        8.587       8.138       7.627       7.182       6.871       6.600       6.327       6.095       5.748       5.402    
        5.116       4.773       4.404       4.127       4.025       3.924       3.938       4.045       4.084       4.104    
        4.123       4.123       4.156       4.182       4.161       4.077       3.948       3.690       3.296       3.035    
        2.712       2.353       2.016       1.702       1.407       1.017      0.6837      0.4537      0.2553       0.000    
  23    10.00       9.876       9.768       9.676       9.574       9.459       9.316       9.200       9.092       8.847    
        8.455       7.973       7.509       7.121       6.804       6.574       6.317       6.014       5.682       5.406    
        5.008       4.507       4.113       3.831       3.417       3.416       3.636       3.757       3.844       3.931    
        3.970       4.005       4.048       4.087       4.070       3.989       3.800       3.508       3.192       2.872    
        2.562       2.265       1.941       1.694       1.320      0.9247      0.6646      0.4360      0.2266       0.000    
  24    10.00       9.903       9.780       9.660       9.542       9.409       9.281       9.181       9.060       8.771    
        8.325       7.870       7.486       7.148       6.844       6.542       6.229       5.955       5.692       5.369    
        4.893       4.397       3.928       3.077       2.171       2.695       3.199       3.492       3.657       3.793    
        3.868       3.917       3.967       3.985       3.966       3.859       3.649       3.414       3.070       2.732    
        2.491       2.206       1.900       1.584       1.182      0.8575      0.6386      0.4080      0.1802       0.000    
  25    10.00       9.894       9.752       9.605       9.466       9.346       9.248       9.148       8.997       8.698    
        8.230       7.807       7.512       7.196       6.844       6.532       6.239       5.998       5.754       5.337    
        4.793       4.305       3.557       2.177     -0.6976       2.070       2.866       3.333       3.577       3.720    
        3.806       3.864       3.906       3.912       3.879       3.758       3.535       3.259       2.979       2.697    
        2.424       2.116       1.767       1.432       1.050      0.7863      0.6347      0.3959      0.1468       0.000    
  26    10.00       9.868       9.685       9.519       9.408       9.311       9.214       9.091       8.913       8.544    
        8.110       7.814       7.531       7.216       6.886       6.586       6.309       6.069       5.761       5.317    
        4.839       4.300       3.644       2.896       2.209       2.567       3.040       3.367       3.567       3.698    
        3.780       3.840       3.866       3.861       3.807       3.658       3.405       3.182       2.959       2.656    
        2.374       2.025       1.625       1.265      0.9537      0.7680      0.5992      0.3519      0.1498       0.000    
  27    10.00       9.839       9.644       9.489       9.395       9.269       9.141       8.986       8.749       8.401    
        8.094       7.832       7.544       7.237       6.913       6.674       6.482       6.156       5.767       5.314    
        4.909       4.516       3.986       3.491       3.099       3.155       3.334       3.493       3.620       3.714    
        3.799       3.849       3.857       3.831       3.753       3.579       3.377       3.182       2.921       2.636    
        2.344       1.923       1.465       1.126      0.9094      0.7544      0.5689      0.3714      0.1792       0.000    
  28    10.00       9.817       9.675       9.502       9.342       9.187       9.046       8.863       8.628       8.358    
        8.105       7.871       7.586       7.243       6.954       6.760       6.545       6.188       5.737       5.338    
        5.048       4.753       4.333       3.945       3.694       3.608       3.599       3.647       3.728       3.805    
        3.861       3.873       3.865       3.818       3.712       3.553       3.390       3.157       2.885       2.596    
        2.238       1.840       1.386       1.051      0.8990      0.7508      0.5860      0.3876      0.1798       0.000    
  29    10.00       9.824       9.646       9.464       9.272       9.123       8.963       8.761       8.562       8.348    
        8.123       7.891       7.614       7.324       7.075       6.844       6.558       6.163       5.751       5.440    
        5.191       4.930       4.584       4.236       4.030       3.917       3.845       3.843       3.883       3.909    
        3.913       3.908       3.880       3.811       3.688       3.548       3.394       3.175       2.872       2.506    
        2.178       1.755       1.299       1.036      0.9019      0.7559      0.5813      0.3784      0.1883       0.000    
  30    10.00       9.798       9.620       9.401       9.206       9.069       8.899       8.721       8.567       8.375    
        8.145       7.895       7.643       7.411       7.189       6.930       6.566       6.198       5.867       5.568    
        5.353       5.093       4.776       4.473       4.225       4.126       4.061       4.036       4.013       3.992    
        3.967       3.943       3.896       3.804       3.688       3.574       3.418       3.136       2.760       2.382    
        2.046       1.655       1.309       1.064      0.9227      0.7578      0.5711      0.3966      0.1947       0.000    
  31    10.00       9.772       9.566       9.357       9.181       9.039       8.878       8.720       8.568       8.382    
        8.155       7.905       7.686       7.495       7.287       6.996       6.637       6.314       6.051       5.783    
        5.552       5.257       4.944       4.689       4.436       4.277       4.213       4.151       4.105       4.058    
        4.025       3.976       3.908       3.816       3.701       3.571       3.324       3.008       2.692       2.320    
        2.001       1.610       1.271       1.092      0.9401      0.7845      0.5902      0.3970      0.1883       0.000    
  32    10.00       9.755       9.534       9.355       9.207       9.065       8.897       8.718       8.534       8.359    
        8.136       7.920       7.726       7.515       7.324       7.077       6.796       6.552       6.279       6.001    
        5.767       5.492       5.174       4.898       4.637       4.410       4.325       4.243       4.179       4.114    
        4.066       4.017       3.924       3.805       3.696       3.516       3.208       2.907       2.626       2.286    
        1.912       1.545       1.293       1.155      0.9880      0.7913      0.5857      0.3771      0.1882       0.000    
  33    10.00       9.748       9.559       9.415       9.268       9.103       8.902       8.704       8.508       8.308    
        8.123       7.941       7.750       7.550       7.337       7.145       6.939       6.731       6.506       6.234    
        5.961       5.703       5.435       5.112       4.790       4.532       4.404       4.325       4.246       4.163    
        4.103       4.034       3.934       3.816       3.655       3.406       3.088       2.831       2.557       2.158    
        1.815       1.572       1.369       1.205       1.014      0.8068      0.5548      0.3318      0.1496       0.000    
  34    10.00       9.771       9.616       9.481       9.318       9.117       8.906       8.675       8.460       8.293    
        8.127       7.961       7.789       7.582       7.394       7.209       7.031       6.864       6.650       6.373    
        6.116       5.880       5.614       5.279       4.927       4.639       4.473       4.380       4.290       4.197    
        4.117       4.043       3.941       3.795       3.599       3.293       2.980       2.743       2.416       2.061    
        1.846       1.683       1.488       1.275       1.024      0.7321      0.4487      0.2659      0.1103       0.000    
  35    10.00       9.809       9.670       9.534       9.360       9.134       8.893       8.638       8.433       8.290    
        8.179       8.012       7.822       7.603       7.403       7.271       7.140       6.969       6.748       6.484    
        6.238       6.005       5.760       5.387       4.989       4.716       4.534       4.425       4.320       4.215    
        4.133       4.044       3.924       3.738       3.437       3.116       2.904       2.652       2.314       2.097    
        1.944       1.759       1.562       1.355       1.037      0.6233      0.3451      0.2270      0.1153       0.000    
  36    10.00       9.832       9.712       9.581       9.397       9.131       8.837       8.597       8.450       8.339    
        8.189       8.001       7.827       7.634       7.457       7.327       7.202       7.052       6.877       6.633    
        6.378       6.131       5.831       5.434       5.041       4.764       4.591       4.463       4.337       4.226    
        4.136       4.022       3.836       3.561       3.286       3.058       2.855       2.591       2.316       2.169    
        2.014       1.848       1.648       1.381      0.9474      0.5259      0.3246      0.2079      0.1069       0.000    
  37    10.00       9.850       9.757       9.617       9.373       9.083       8.825       8.637       8.514       8.381    
        8.188       7.988       7.839       7.672       7.509       7.384       7.271       7.131       6.947       6.737    
        6.528       6.259       5.888       5.514       5.144       4.832       4.626       4.469       4.356       4.233    
        4.116       3.954       3.679       3.425       3.224       3.027       2.815       2.604       2.403       2.238    
        2.088       1.901       1.675       1.323      0.8707      0.5087      0.3050      0.1939      9.7262E-02   0.000    
  38    10.00       9.873       9.761       9.609       9.357       9.058       8.840       8.700       8.574       8.419    
        8.215       8.004       7.858       7.705       7.543       7.419       7.321       7.201       7.022       6.839    
        6.647       6.345       5.929       5.526       5.170       4.868       4.647       4.473       4.360       4.247    
        4.081       3.818       3.569       3.402       3.200       3.001       2.846       2.664       2.480       2.320    
        2.142       1.887       1.600       1.218      0.7681      0.4894      0.3444      0.2146      9.6314E-02   0.000    
  39    10.00       9.872       9.746       9.587       9.344       9.074       8.877       8.754       8.601       8.431    
        8.266       8.053       7.885       7.741       7.585       7.454       7.345       7.228       7.085       6.920    
        6.703       6.387       5.963       5.516       5.151       4.874       4.626       4.451       4.354       4.251    
        4.009       3.724       3.558       3.366       3.177       3.032       2.899       2.733       2.553       2.402    
        2.145       1.783       1.445       1.030      0.6877      0.5313      0.3957      0.2577      0.1326       0.000    
  40    10.00       9.863       9.752       9.591       9.368       9.142       8.951       8.789       8.609       8.453    
        8.329       8.124       7.913       7.767       7.623       7.476       7.357       7.264       7.141       6.951    
        6.708       6.349       5.921       5.505       5.129       4.843       4.572       4.431       4.346       4.209    
        3.989       3.763       3.538       3.335       3.198       3.070       2.943       2.787       2.620       2.422    
        2.075       1.679       1.311      0.9744      0.7390      0.5776      0.4424      0.3123      0.1534       0.000    
  41    10.00       9.882       9.794       9.638       9.409       9.175       8.994       8.850       8.673       8.487    
        8.342       8.158       7.965       7.826       7.660       7.485       7.380       7.283       7.130       6.929    
        6.682       6.336       5.911       5.501       5.127       4.750       4.495       4.415       4.325       4.221    
        4.041       3.770       3.541       3.376       3.237       3.121       2.981       2.830       2.657       2.351    
        1.943       1.557       1.235      0.9857      0.7818      0.6318      0.4870      0.3442      0.1813       0.000    
  42    10.00       9.912       9.815       9.667       9.471       9.249       9.045       8.898       8.740       8.539    
        8.354       8.178       8.016       7.884       7.711       7.523       7.400       7.271       7.105       6.881    
        6.603       6.229       5.860       5.457       4.973       4.632       4.490       4.426       4.348       4.233    
        4.023       3.785       3.568       3.401       3.286       3.162       3.037       2.874       2.600       2.194    
        1.836       1.546       1.265      0.9830      0.7932      0.6658      0.5267      0.3590      0.1992       0.000    
  43    10.00       9.931       9.829       9.677       9.486       9.303       9.122       8.958       8.767       8.562    
        8.393       8.217       8.057       7.935       7.775       7.569       7.407       7.261       7.035       6.751    
        6.478       6.120       5.776       5.322       4.862       4.631       4.517       4.443       4.367       4.246    
        4.047       3.827       3.617       3.450       3.340       3.217       3.055       2.823       2.424       2.062    
        1.837       1.579       1.283      0.9886      0.7871      0.6690      0.5615      0.3891      0.1823       0.000    
  44    10.00       9.924       9.838       9.682       9.509       9.378       9.199       8.979       8.765       8.595    
        8.427       8.254       8.113       7.987       7.804       7.588       7.405       7.231       6.965       6.675    
        6.348       5.988       5.626       5.168       4.820       4.646       4.548       4.482       4.399       4.248    
        4.042       3.865       3.679       3.523       3.410       3.246       3.030       2.698       2.289       2.046    
        1.841       1.570       1.275       1.006      0.7992      0.6723      0.5628      0.3817      0.1682       0.000    
  45    10.00       9.909       9.806       9.682       9.557       9.392       9.208       9.001       8.788       8.619    
        8.448       8.293       8.170       8.029       7.832       7.603       7.396       7.198       6.911       6.568    
        6.191       5.806       5.414       5.074       4.830       4.681       4.586       4.517       4.414       4.289    
        4.110       3.909       3.742       3.584       3.427       3.253       3.015       2.659       2.302       2.018    
        1.782       1.527       1.249       1.007      0.8262      0.7203      0.5564      0.3313      0.1511       0.000    
  46    10.00       9.891       9.785       9.686       9.548       9.362       9.184       9.017       8.810       8.630    
        8.480       8.334       8.212       8.047       7.839       7.636       7.416       7.157       6.846       6.472    
        6.025       5.641       5.324       5.063       4.877       4.746       4.629       4.537       4.456       4.316    
        4.128       3.954       3.792       3.613       3.457       3.287       3.020       2.609       2.231       1.978    
        1.754       1.508       1.245       1.032      0.8910      0.7546      0.5059      0.2487      0.1081       0.000    
  47    10.00       9.885       9.778       9.643       9.483       9.331       9.179       8.999       8.811       8.651    
        8.514       8.384       8.215       8.037       7.851       7.655       7.418       7.116       6.822       6.369    
        5.879       5.577       5.302       5.097       4.924       4.796       4.681       4.568       4.473       4.330    
        4.134       3.963       3.801       3.631       3.494       3.290       2.920       2.549       2.232       1.961    
        1.764       1.530       1.295       1.089      0.9142      0.6942      0.4176      0.2182      9.0880E-02   0.000    
  48    10.00       9.873       9.745       9.602       9.456       9.322       9.168       9.003       8.830       8.673    
        8.534       8.385       8.202       8.019       7.837       7.644       7.418       7.134       6.767       6.316    
        5.890       5.579       5.311       5.122       4.982       4.826       4.710       4.616       4.499       4.306    
        4.114       3.947       3.798       3.671       3.492       3.224       2.869       2.534       2.233       1.992    
        1.780       1.557       1.346       1.112      0.8501      0.5657      0.3578      0.2122      9.5870E-02   0.000    
  49    10.00       9.862       9.723       9.582       9.464       9.324       9.162       9.000       8.860       8.698    
        8.532       8.346       8.167       8.013       7.807       7.619       7.431       7.114       6.751       6.391    
        5.942       5.594       5.328       5.162       4.999       4.831       4.741       4.653       4.469       4.236    
        4.070       3.937       3.827       3.664       3.456       3.216       2.859       2.524       2.287       2.032    
        1.781       1.576       1.351       1.075      0.7542      0.5052      0.3582      0.2312      0.1186       0.000    
  50    10.00       9.867       9.728       9.585       9.456       9.319       9.175       9.016       8.868       8.724    
        8.521       8.327       8.162       7.957       7.748       7.604       7.425       7.179       6.820       6.464    
        6.007       5.569       5.337       5.169       4.999       4.863       4.755       4.638       4.420       4.199    
        4.061       3.950       3.824       3.654       3.462       3.231       2.871       2.526       2.296       2.066    
        1.828       1.570       1.315       1.020      0.7035      0.5172      0.3856      0.2614      0.1576       0.000    

 HEAD WILL BE SAVED ON UNIT   51 AT END OF TIME STEP  96, STRESS PERIOD    2

 DRAWDOWN WILL BE SAVED ON UNIT   52 AT END OF TIME STEP  96, STRESS PERIOD    2
1
  VOLUMETRIC BUDGET FOR ENTIRE MODEL AT END OF TIME STEP 96 IN STRESS PERIOD   2
  ------------------------------------------------------------------------------

     CUMULATIVE VOLUMES      L**3       RATES FOR THIS TIME STEP      L**3/T
     ------------------                 ------------------------

           IN:                                      IN:
           ---                                      ---
             STORAGE =       45612.3828               STORAGE =         422.3398
       CONSTANT HEAD =       38150.8594         CONSTANT HEAD =         434.7155
               WELLS =           0.0000                 WELLS =           0.0000

            TOTAL IN =       83763.2422              TOTAL IN =         857.0553

          OUT:                                     OUT:
          ----                                     ----
             STORAGE =       1.1143E-02               STORAGE =           0.0000
       CONSTANT HEAD =       35763.2266         CONSTANT HEAD =         357.0553
               WELLS =       48000.0000                 WELLS =         500.0000

           TOTAL OUT =       83763.2344             TOTAL OUT =         857.0553

            IN - OUT =       7.8125E-03              IN - OUT =           0.0000

 PERCENT DISCREPANCY =           0.00     PERCENT DISCREPANCY =           0.00






          TIME SUMMARY AT END OF TIME STEP  96 IN STRESS PERIOD    2
                    SECONDS     MINUTES      HOURS       DAYS        YEARS
                    -----------------------------------------------------------
   TIME STEP LENGTH  86400.      1440.0      24.000      1.0000     2.73785E-03
 STRESS PERIOD TIME 8.29440E+06 1.38240E+05  2304.0      96.000     0.26283    
         TOTAL TIME 8.38080E+06 1.39680E+05  2328.0      97.000     0.26557    
1
 
 SOLVING FOR HEAD 

 OUTPUT CONTROL FOR STRESS PERIOD    2   TIME STEP  97
    SAVE HEAD FOR ALL LAYERS
    SAVE DRAWDOWN FOR ALL LAYERS
    SAVE BUDGET
    PRINT HEAD FOR ALL LAYERS
    PRINT BUDGET
 UBDSV1 SAVING "         STORAGE" ON UNIT  53 AT TIME STEP 97, STRESS PERIOD   2
 UBDSV2 SAVING "   CONSTANT HEAD" ON UNIT  53 AT TIME STEP 97, STRESS PERIOD   2
 UBDSV1 SAVING "FLOW RIGHT FACE " ON UNIT  53 AT TIME STEP 97, STRESS PERIOD   2
 UBDSV1 SAVING "FLOW FRONT FACE " ON UNIT  53 AT TIME STEP 97, STRESS PERIOD   2
1
              HEAD IN LAYER   1 AT END OF TIME STEP  97 IN STRESS PERIOD    2
  ---------------------------------------------------------------------------

            1           2           3           4           5           6           7           8           9          10
           11          12          13          14          15          16          17          18          19          20
           21          22          23          24          25          26          27          28          29          30
           31          32          33          34          35          36          37          38          39          40
           41          42          43          44          45          46          47          48          49          50
 ........................................................................................................................
   1    10.00       9.948       9.897       9.836       9.788       9.748       9.695       9.620       9.539       9.465    
        9.301       9.096       8.945       8.777       8.598       8.417       8.250       8.058       7.802       7.548    
        7.374       7.177       6.918       6.655       6.420       6.217       5.929       5.667       5.482       5.291    
        5.128       5.024       4.915       4.791       4.674       4.528       4.372       4.160       3.918       3.653    
        3.309       2.959       2.496       1.988       1.605       1.328       1.122      0.8848      0.5196       0.000    
   2    10.00       9.943       9.888       9.836       9.796       9.757       9.697       9.621       9.547       9.447    
        9.286       9.103       8.933       8.779       8.614       8.427       8.228       8.030       7.792       7.536    
        7.347       7.184       6.907       6.622       6.414       6.184       5.905       5.656       5.443       5.262    
        5.125       5.031       4.938       4.807       4.669       4.524       4.344       4.147       3.913       3.609    
        3.289       2.991       2.505       2.001       1.662       1.416       1.178      0.9139      0.5520       0.000    
   3    10.00       9.934       9.887       9.852       9.813       9.773       9.708       9.618       9.528       9.418    
        9.273       9.110       8.946       8.791       8.593       8.359       8.164       7.993       7.773       7.548    
        7.355       7.122       6.847       6.596       6.369       6.112       5.842       5.595       5.377       5.245    
        5.135       5.045       4.953       4.809       4.663       4.508       4.330       4.109       3.846       3.615    
        3.332       2.926       2.452       2.092       1.804       1.519       1.227      0.9263      0.5234       0.000    
   4    10.00       9.934       9.893       9.861       9.834       9.791       9.717       9.612       9.505       9.396    
        9.257       9.110       8.946       8.750       8.506       8.289       8.149       7.957       7.744       7.568    
        7.301       7.005       6.763       6.540       6.320       6.010       5.712       5.514       5.369       5.257    
        5.160       5.066       4.965       4.796       4.616       4.475       4.286       4.057       3.835       3.634    
        3.312       2.864       2.508       2.206       1.898       1.575       1.223      0.8716      0.4470       0.000    
   5    10.00       9.939       9.901       9.869       9.845       9.801       9.722       9.603       9.483       9.373    
        9.255       9.104       8.891       8.662       8.455       8.283       8.109       7.928       7.729       7.479    
        7.168       6.923       6.723       6.497       6.212       5.891       5.647       5.508       5.390       5.275    
        5.163       5.048       4.932       4.767       4.583       4.413       4.244       4.066       3.866       3.600    
        3.236       2.897       2.594       2.289       1.954       1.578       1.136      0.7330      0.3798       0.000    
   6    10.00       9.949       9.912       9.881       9.848       9.799       9.715       9.585       9.480       9.362    
        9.229       9.041       8.807       8.616       8.425       8.228       8.049       7.887       7.664       7.378    
        7.101       6.869       6.662       6.381       6.073       5.831       5.636       5.507       5.373       5.254    
        5.154       5.029       4.884       4.714       4.535       4.390       4.245       4.084       3.874       3.588    
        3.272       2.946       2.637       2.330       1.966       1.512       1.037      0.6885      0.3546       0.000    
   7    10.00       9.956       9.923       9.891       9.854       9.795       9.682       9.557       9.448       9.301    
        9.164       8.961       8.749       8.552       8.354       8.152       7.978       7.828       7.570       7.266    
        7.014       6.776       6.546       6.274       6.014       5.795       5.624       5.466       5.321       5.231    
        5.130       4.989       4.836       4.668       4.516       4.387       4.252       4.089       3.875       3.618    
        3.305       2.970       2.651       2.313       1.954       1.478      0.9904      0.6549      0.3101       0.000    
   8    10.00       9.963       9.934       9.898       9.856       9.760       9.621       9.502       9.364       9.225    
        9.072       8.864       8.682       8.480       8.258       8.058       7.908       7.728       7.481       7.186    
        6.894       6.675       6.484       6.203       5.931       5.736       5.542       5.369       5.274       5.185    
        5.062       4.922       4.794       4.649       4.495       4.364       4.261       4.139       3.933       3.640    
        3.298       3.002       2.705       2.313       1.914       1.382      0.9168      0.6409      0.2967       0.000    
   9    10.00       9.971       9.938       9.897       9.826       9.698       9.549       9.410       9.288       9.144    
        8.962       8.777       8.595       8.400       8.170       7.984       7.841       7.627       7.383       7.078    
        6.827       6.609       6.334       6.043       5.813       5.639       5.447       5.306       5.213       5.110    
        4.999       4.875       4.754       4.628       4.496       4.376       4.278       4.170       3.957       3.640    
        3.327       3.066       2.755       2.379       1.790       1.189      0.8728      0.5414      0.2065       0.000    
  10    10.00       9.971       9.936       9.878       9.768       9.616       9.450       9.341       9.226       9.053    
        8.895       8.711       8.530       8.316       8.103       7.935       7.741       7.520       7.260       7.014    
        6.766       6.426       6.142       5.915       5.721       5.563       5.385       5.245       5.151       5.071    
        4.955       4.820       4.713       4.598       4.483       4.403       4.307       4.182       3.938       3.625    
        3.384       3.156       2.800       2.233       1.549       1.115      0.7909      0.4830      0.2411       0.000    
  11    10.00       9.970       9.924       9.834       9.709       9.538       9.391       9.299       9.161       9.014    
        8.861       8.668       8.449       8.220       8.041       7.858       7.675       7.437       7.184       6.942    
        6.581       6.255       6.031       5.828       5.641       5.465       5.294       5.187       5.112       5.031    
        4.897       4.773       4.687       4.586       4.496       4.408       4.297       4.162       3.933       3.685    
        3.433       3.136       2.748       2.122       1.484       1.047      0.7401      0.5618      0.3105       0.000    
  12    10.00       9.968       9.903       9.786       9.623       9.452       9.335       9.243       9.121       8.989    
        8.820       8.614       8.393       8.191       8.008       7.807       7.595       7.349       7.092       6.758    
        6.402       6.156       5.935       5.728       5.520       5.346       5.229       5.151       5.053       4.944    
        4.825       4.738       4.663       4.585       4.508       4.419       4.303       4.141       3.931       3.710    
        3.438       3.115       2.585       1.880       1.337       1.030      0.8207      0.5957      0.3398       0.000    
  13    10.00       9.957       9.856       9.695       9.524       9.376       9.281       9.200       9.097       8.968    
        8.789       8.573       8.371       8.209       7.997       7.748       7.501       7.235       6.946       6.619    
        6.308       6.041       5.801       5.585       5.385       5.260       5.190       5.075       4.947       4.849    
        4.777       4.711       4.644       4.582       4.507       4.430       4.327       4.143       3.931       3.669    
        3.357       2.947       2.330       1.760       1.367       1.106      0.8621      0.5968      0.2951       0.000    
  14    10.00       9.921       9.775       9.597       9.438       9.322       9.259       9.183       9.084       8.942    
        8.744       8.559       8.393       8.224       7.980       7.687       7.421       7.118       6.799       6.459    
        6.157       5.890       5.654       5.441       5.288       5.202       5.114       4.971       4.865       4.794    
        4.744       4.681       4.626       4.568       4.501       4.441       4.319       4.130       3.908       3.579    
        3.213       2.730       2.257       1.843       1.452       1.147      0.8769      0.5971      0.2662       0.000    
  15    10.00       9.852       9.690       9.530       9.402       9.313       9.243       9.171       9.072       8.939    
        8.763       8.583       8.418       8.176       7.889       7.605       7.311       6.999       6.618       6.257    
        5.978       5.720       5.499       5.340       5.226       5.137       5.025       4.894       4.807       4.759    
        4.699       4.649       4.609       4.553       4.492       4.426       4.294       4.118       3.835       3.482    
        3.104       2.673       2.292       1.867       1.540       1.214      0.8878      0.5915      0.2429       0.000    
  16    10.00       9.828       9.651       9.505       9.394       9.313       9.240       9.174       9.077       8.939    
        8.773       8.599       8.393       8.083       7.768       7.532       7.241       6.822       6.389       6.057    
        5.772       5.559       5.380       5.245       5.119       5.039       4.916       4.811       4.747       4.691    
        4.649       4.621       4.579       4.527       4.472       4.395       4.274       4.058       3.752       3.435    
        3.114       2.703       2.277       1.904       1.596       1.254      0.8856      0.5305      0.1998       0.000    
  17    10.00       9.804       9.626       9.509       9.411       9.327       9.256       9.182       9.076       8.946    
        8.790       8.570       8.287       7.952       7.687       7.463       7.104       6.632       6.195       5.877    
        5.651       5.414       5.215       5.070       4.968       4.865       4.759       4.695       4.645       4.619    
        4.608       4.581       4.539       4.488       4.429       4.346       4.203       4.015       3.772       3.444    
        3.081       2.649       2.257       1.928       1.613       1.264      0.9044      0.5529      0.2340       0.000    
  18    10.00       9.793       9.625       9.524       9.435       9.355       9.283       9.193       9.089       8.949    
        8.762       8.500       8.185       7.901       7.641       7.311       6.894       6.464       6.080       5.767    
        5.489       5.186       5.016       4.896       4.806       4.689       4.622       4.567       4.536       4.549    
        4.550       4.527       4.484       4.428       4.368       4.281       4.147       3.997       3.788       3.488    
        3.020       2.561       2.242       1.930       1.663       1.296      0.9004      0.5430      0.2341       0.000    
  19    10.00       9.802       9.662       9.557       9.462       9.382       9.297       9.213       9.117       8.955    
        8.733       8.453       8.141       7.826       7.481       7.123       6.739       6.325       5.938       5.608    
        5.285       5.023       4.888       4.797       4.668       4.565       4.508       4.458       4.451       4.459    
        4.471       4.461       4.410       4.361       4.314       4.249       4.127       3.964       3.754       3.403    
        2.933       2.546       2.229       1.923       1.624       1.245      0.8661      0.5403      0.2549       0.000    
  20    10.00       9.813       9.693       9.601       9.510       9.414       9.314       9.223       9.126       8.960    
        8.719       8.428       8.064       7.653       7.259       6.968       6.582       6.140       5.803       5.476    
        5.189       4.973       4.809       4.669       4.504       4.432       4.396       4.372       4.378       4.381    
        4.389       4.370       4.332       4.309       4.274       4.211       4.069       3.908       3.669       3.276    
        2.872       2.565       2.200       1.851       1.524       1.150      0.8689      0.5369      0.2384       0.000    
  21    10.00       9.840       9.732       9.639       9.539       9.447       9.337       9.238       9.132       8.945    
        8.684       8.325       7.871       7.392       7.028       6.765       6.405       6.083       5.767       5.414    
        5.142       4.903       4.698       4.431       4.295       4.258       4.202       4.243       4.279       4.276    
        4.273       4.249       4.251       4.244       4.221       4.137       4.001       3.864       3.517       3.108    
        2.809       2.477       2.103       1.778       1.431       1.104      0.7868      0.4728      0.2378       0.000    
  22    10.00       9.874       9.761       9.660       9.563       9.476       9.350       9.222       9.098       8.904    
        8.583       8.133       7.622       7.175       6.864       6.592       6.319       6.087       5.739       5.393    
        5.107       4.764       4.395       4.118       4.016       3.915       3.928       4.036       4.075       4.095    
        4.113       4.113       4.146       4.173       4.152       4.069       3.940       3.683       3.289       3.029    
        2.707       2.349       2.013       1.700       1.405       1.016      0.6827      0.4530      0.2549       0.000    
  23    10.00       9.876       9.767       9.675       9.573       9.457       9.315       9.198       9.089       8.844    
        8.451       7.968       7.503       7.114       6.796       6.566       6.309       6.006       5.674       5.398    
        4.999       4.498       4.103       3.821       3.408       3.406       3.626       3.747       3.834       3.921    
        3.960       3.995       4.038       4.077       4.060       3.980       3.791       3.501       3.186       2.866    
        2.557       2.261       1.938       1.691       1.318      0.9233      0.6636      0.4354      0.2263       0.000    
  24    10.00       9.903       9.780       9.659       9.540       9.408       9.279       9.179       9.057       8.768    
        8.320       7.865       7.480       7.141       6.837       6.535       6.221       5.947       5.683       5.360    
        4.884       4.387       3.919       3.067       2.161       2.685       3.189       3.482       3.647       3.783    
        3.857       3.907       3.957       3.975       3.956       3.850       3.641       3.407       3.064       2.727    
        2.486       2.202       1.897       1.581       1.180      0.8562      0.6376      0.4075      0.1800       0.000    
  25    10.00       9.894       9.751       9.604       9.465       9.345       9.246       9.146       8.995       8.695    
        8.226       7.802       7.506       7.189       6.837       6.524       6.231       5.990       5.745       5.328    
        4.784       4.295       3.547       2.167     -0.7085       2.060       2.856       3.322       3.567       3.710    
        3.796       3.854       3.896       3.902       3.870       3.749       3.527       3.251       2.972       2.691    
        2.419       2.112       1.764       1.430       1.049      0.7851      0.6338      0.3953      0.1466       0.000    
  26    10.00       9.867       9.684       9.518       9.406       9.309       9.212       9.088       8.911       8.541    
        8.105       7.809       7.525       7.209       6.879       6.578       6.301       6.061       5.752       5.308    
        4.830       4.290       3.634       2.886       2.199       2.557       3.030       3.357       3.557       3.688    
        3.769       3.830       3.856       3.851       3.797       3.648       3.397       3.175       2.953       2.650    
        2.369       2.021       1.622       1.263      0.9522      0.7668      0.5983      0.3514      0.1496       0.000    
  27    10.00       9.838       9.643       9.488       9.394       9.267       9.139       8.983       8.746       8.397    
        8.089       7.826       7.538       7.230       6.906       6.667       6.474       6.148       5.758       5.306    
        4.899       4.507       3.976       3.481       3.089       3.144       3.324       3.483       3.610       3.703    
        3.789       3.839       3.847       3.821       3.744       3.570       3.369       3.175       2.914       2.630    
        2.339       1.919       1.462       1.124      0.9080      0.7532      0.5680      0.3708      0.1789       0.000    
  28    10.00       9.817       9.674       9.501       9.340       9.185       9.043       8.860       8.624       8.354    
        8.100       7.866       7.580       7.236       6.947       6.753       6.538       6.180       5.729       5.329    
        5.039       4.744       4.324       3.935       3.684       3.598       3.589       3.637       3.718       3.795    
        3.851       3.863       3.855       3.808       3.703       3.545       3.382       3.150       2.878       2.590    
        2.233       1.837       1.383       1.049      0.8976      0.7496      0.5851      0.3870      0.1795       0.000    
  29    10.00       9.823       9.645       9.462       9.270       9.120       8.961       8.758       8.558       8.343    
        8.118       7.886       7.608       7.317       7.068       6.837       6.551       6.155       5.743       5.431    
        5.182       4.921       4.575       4.226       4.020       3.907       3.836       3.833       3.873       3.899    
        3.903       3.898       3.870       3.802       3.679       3.540       3.386       3.168       2.866       2.501    
        2.173       1.751       1.297       1.034      0.9005      0.7548      0.5805      0.3779      0.1880       0.000    
  30    10.00       9.798       9.619       9.399       9.204       9.067       8.896       8.718       8.564       8.371    
        8.140       7.890       7.637       7.405       7.183       6.923       6.559       6.191       5.859       5.559    
        5.344       5.084       4.767       4.464       4.216       4.116       4.051       4.027       4.003       3.982    
        3.957       3.934       3.886       3.795       3.679       3.566       3.410       3.129       2.755       2.378    
        2.042       1.652       1.306       1.063      0.9213      0.7566      0.5702      0.3960      0.1944       0.000    
  31    10.00       9.771       9.565       9.355       9.179       9.037       8.875       8.717       8.565       8.378    
        8.151       7.899       7.681       7.489       7.281       6.989       6.629       6.306       6.043       5.775    
        5.543       5.249       4.935       4.679       4.427       4.267       4.203       4.141       4.095       4.048    
        4.016       3.967       3.899       3.807       3.692       3.563       3.317       3.001       2.687       2.316    
        1.997       1.607       1.269       1.091      0.9387      0.7834      0.5893      0.3964      0.1880       0.000    
  32    10.00       9.754       9.532       9.353       9.205       9.062       8.894       8.715       8.530       8.355    
        8.132       7.915       7.721       7.509       7.318       7.071       6.789       6.545       6.272       5.993    
        5.759       5.483       5.166       4.889       4.628       4.400       4.316       4.234       4.170       4.104    
        4.057       4.008       3.915       3.797       3.687       3.508       3.202       2.901       2.621       2.281    
        1.909       1.543       1.291       1.153      0.9865      0.7902      0.5848      0.3765      0.1879       0.000    
  33    10.00       9.747       9.558       9.414       9.266       9.101       8.899       8.701       8.504       8.304    
        8.119       7.936       7.745       7.544       7.331       7.139       6.933       6.724       6.499       6.226    
        5.953       5.695       5.426       5.103       4.781       4.523       4.395       4.315       4.237       4.154    
        4.094       4.025       3.926       3.808       3.647       3.399       3.082       2.825       2.552       2.154    
        1.812       1.570       1.367       1.203       1.012      0.8056      0.5540      0.3314      0.1494       0.000    
  34    10.00       9.770       9.615       9.480       9.317       9.115       8.903       8.672       8.456       8.289    
        8.123       7.956       7.784       7.577       7.389       7.203       7.024       6.857       6.643       6.365    
        6.108       5.872       5.606       5.271       4.918       4.630       4.464       4.371       4.281       4.188    
        4.108       4.035       3.933       3.788       3.592       3.287       2.975       2.738       2.412       2.057    
        1.843       1.681       1.486       1.274       1.023      0.7311      0.4481      0.2656      0.1102       0.000    
  35    10.00       9.808       9.669       9.532       9.358       9.132       8.890       8.634       8.429       8.286    
        8.174       8.008       7.817       7.597       7.397       7.265       7.134       6.963       6.741       6.477    
        6.230       5.997       5.752       5.378       4.981       4.708       4.525       4.416       4.312       4.207    
        4.124       4.036       3.916       3.731       3.430       3.110       2.899       2.648       2.311       2.094    
        1.941       1.757       1.560       1.353       1.035      0.6225      0.3446      0.2267      0.1151       0.000    
  36    10.00       9.831       9.711       9.580       9.396       9.128       8.834       8.594       8.446       8.335    
        8.184       7.996       7.822       7.628       7.452       7.321       7.196       7.046       6.870       6.626    
        6.370       6.123       5.823       5.426       5.033       4.756       4.582       4.455       4.329       4.218    
        4.128       4.014       3.829       3.555       3.280       3.053       2.851       2.587       2.313       2.166    
        2.011       1.845       1.646       1.379      0.9461      0.5252      0.3242      0.2077      0.1067       0.000    
  37    10.00       9.850       9.757       9.616       9.372       9.081       8.822       8.634       8.511       8.378    
        8.184       7.984       7.834       7.667       7.503       7.378       7.265       7.125       6.940       6.730    
        6.521       6.252       5.881       5.506       5.137       4.825       4.619       4.461       4.348       4.226    
        4.108       3.947       3.673       3.419       3.219       3.023       2.811       2.600       2.400       2.235    
        2.085       1.898       1.673       1.321      0.8696      0.5080      0.3046      0.1937      9.7144E-02   0.000    
  38    10.00       9.872       9.761       9.608       9.355       9.055       8.837       8.697       8.571       8.416    
        8.211       8.000       7.853       7.700       7.538       7.413       7.316       7.195       7.016       6.833    
        6.641       6.338       5.921       5.519       5.163       4.861       4.640       4.467       4.353       4.240    
        4.074       3.812       3.564       3.397       3.196       2.997       2.842       2.660       2.477       2.317    
        2.139       1.885       1.598       1.217      0.7672      0.4889      0.3440      0.2144      9.6204E-02   0.000    
  39    10.00       9.872       9.745       9.586       9.343       9.072       8.874       8.751       8.598       8.428    
        8.262       8.049       7.880       7.736       7.580       7.448       7.339       7.223       7.079       6.914    
        6.697       6.380       5.956       5.509       5.144       4.867       4.620       4.445       4.348       4.245    
        4.003       3.719       3.553       3.362       3.173       3.028       2.896       2.729       2.550       2.399    
        2.142       1.781       1.443       1.029      0.6870      0.5307      0.3953      0.2574      0.1324       0.000    
  40    10.00       9.862       9.752       9.590       9.367       9.140       8.948       8.786       8.606       8.449    
        8.326       8.120       7.909       7.762       7.618       7.471       7.352       7.259       7.135       6.946    
        6.702       6.343       5.915       5.499       5.123       4.837       4.566       4.426       4.341       4.204    
        3.984       3.758       3.534       3.331       3.194       3.066       2.939       2.784       2.616       2.419    
        2.072       1.677       1.310      0.9734      0.7382      0.5770      0.4419      0.3120      0.1532       0.000    
  41    10.00       9.882       9.794       9.637       9.408       9.173       8.992       8.847       8.670       8.484    
        8.339       8.154       7.960       7.822       7.655       7.480       7.375       7.278       7.124       6.923    
        6.676       6.331       5.905       5.496       5.122       4.745       4.490       4.410       4.321       4.216    
        4.036       3.765       3.537       3.372       3.233       3.118       2.978       2.827       2.654       2.348    
        1.941       1.555       1.234      0.9847      0.7810      0.6312      0.4865      0.3438      0.1811       0.000    
  42    10.00       9.912       9.815       9.666       9.470       9.248       9.043       8.895       8.737       8.536    
        8.351       8.175       8.012       7.880       7.707       7.519       7.395       7.266       7.100       6.876    
        6.598       6.224       5.855       5.452       4.968       4.627       4.485       4.422       4.344       4.228    
        4.019       3.781       3.564       3.397       3.283       3.159       3.034       2.871       2.597       2.192    
        1.834       1.545       1.264      0.9820      0.7924      0.6651      0.5262      0.3587      0.1991       0.000    
  43    10.00       9.931       9.828       9.676       9.485       9.302       9.121       8.956       8.765       8.560    
        8.390       8.214       8.054       7.931       7.771       7.564       7.402       7.256       7.031       6.746    
        6.474       6.116       5.772       5.317       4.858       4.627       4.512       4.439       4.363       4.242    
        4.043       3.823       3.613       3.447       3.337       3.213       3.051       2.820       2.421       2.060    
        1.835       1.577       1.281      0.9877      0.7864      0.6683      0.5610      0.3887      0.1822       0.000    
  44    10.00       9.924       9.838       9.681       9.508       9.376       9.197       8.977       8.762       8.592    
        8.425       8.251       8.110       7.983       7.801       7.584       7.401       7.227       6.961       6.671    
        6.344       5.984       5.621       5.164       4.816       4.642       4.544       4.478       4.395       4.244    
        4.038       3.861       3.675       3.519       3.407       3.243       3.027       2.695       2.286       2.044    
        1.839       1.569       1.274       1.005      0.7985      0.6717      0.5623      0.3814      0.1681       0.000    
  45    10.00       9.909       9.806       9.681       9.556       9.391       9.206       9.000       8.786       8.617    
        8.446       8.291       8.167       8.026       7.829       7.600       7.392       7.195       6.908       6.565    
        6.187       5.803       5.411       5.070       4.826       4.677       4.582       4.513       4.410       4.286    
        4.106       3.905       3.739       3.580       3.424       3.250       3.012       2.657       2.300       2.016    
        1.780       1.526       1.248       1.006      0.8256      0.7197      0.5559      0.3310      0.1509       0.000    
  46    10.00       9.891       9.785       9.686       9.547       9.361       9.183       9.016       8.808       8.628    
        8.478       8.332       8.209       8.045       7.836       7.633       7.413       7.154       6.843       6.469    
        6.022       5.638       5.321       5.060       4.873       4.742       4.625       4.533       4.452       4.313    
        4.124       3.951       3.789       3.610       3.454       3.284       3.017       2.607       2.230       1.977    
        1.753       1.507       1.244       1.031      0.8903      0.7540      0.5055      0.2485      0.1080       0.000    
  47    10.00       9.885       9.778       9.642       9.482       9.330       9.178       8.997       8.809       8.649    
        8.512       8.382       8.213       8.035       7.849       7.652       7.415       7.113       6.819       6.365    
        5.876       5.573       5.299       5.094       4.920       4.792       4.677       4.565       4.470       4.327    
        4.130       3.959       3.798       3.628       3.491       3.288       2.917       2.548       2.231       1.959    
        1.762       1.529       1.294       1.088      0.9136      0.6937      0.4173      0.2181      9.0813E-02   0.000    
  48    10.00       9.872       9.745       9.601       9.455       9.321       9.167       9.002       8.828       8.671    
        8.532       8.383       8.200       8.016       7.835       7.641       7.416       7.131       6.765       6.313    
        5.887       5.576       5.308       5.119       4.978       4.823       4.707       4.613       4.495       4.303    
        4.110       3.944       3.795       3.668       3.489       3.221       2.867       2.532       2.231       1.991    
        1.779       1.556       1.345       1.111      0.8495      0.5653      0.3575      0.2120      9.5805E-02   0.000    
  49    10.00       9.861       9.723       9.582       9.463       9.323       9.161       8.999       8.859       8.697    
        8.531       8.344       8.164       8.011       7.805       7.617       7.429       7.111       6.749       6.388    
        5.939       5.591       5.324       5.159       4.995       4.828       4.737       4.649       4.465       4.233    
        4.067       3.933       3.824       3.661       3.454       3.213       2.857       2.522       2.286       2.031    
        1.780       1.575       1.350       1.075      0.7537      0.5049      0.3580      0.2311      0.1185       0.000    
  50    10.00       9.867       9.728       9.585       9.455       9.318       9.174       9.014       8.867       8.723    
        8.520       8.325       8.160       7.955       7.745       7.601       7.423       7.177       6.818       6.461    
        6.004       5.566       5.334       5.166       4.995       4.859       4.751       4.635       4.417       4.195    
        4.058       3.947       3.821       3.652       3.459       3.229       2.869       2.524       2.294       2.065    
        1.827       1.569       1.315       1.020      0.7031      0.5168      0.3854      0.2612      0.1575       0.000    

 HEAD WILL BE SAVED ON UNIT   51 AT END OF TIME STEP  97, STRESS PERIOD    2

 DRAWDOWN WILL BE SAVED ON UNIT   52 AT END OF TIME STEP  97, STRESS PERIOD    2
1
  VOLUMETRIC BUDGET FOR ENTIRE MODEL AT END OF TIME STEP 97 IN STRESS PERIOD   2
  ------------------------------------------------------------------------------

     CUMULATIVE VOLUMES      L**3       RATES FOR THIS TIME STEP      L**3/T
     ------------------                 ------------------------

           IN:                                      IN:
           ---                                      ---
             STORAGE =       46033.2969               STORAGE =         420.9141
       CONSTANT HEAD =       38586.5781         CONSTANT HEAD =         435.7205
               WELLS =           0.0000                 WELLS =           0.0000

            TOTAL IN =       84619.8750              TOTAL IN =         856.6346

          OUT:                                     OUT:
          ----                                     ----
             STORAGE =       1.1143E-02               STORAGE =           0.0000
       CONSTANT HEAD =       36119.8633         CONSTANT HEAD =         356.6348
               WELLS =       48500.0000                 WELLS =         500.0000

           TOTAL OUT =       84619.8750             TOTAL OUT =         856.6348

            IN - OUT =           0.0000              IN - OUT =      -1.2207E-04

 PERCENT DISCREPANCY =           0.00     PERCENT DISCREPANCY =           0.00






          TIME SUMMARY AT END OF TIME STEP  97 IN STRESS PERIOD    2
                    SECONDS     MINUTES      HOURS       DAYS        YEARS
                    -----------------------------------------------------------
   TIME STEP LENGTH  86400.      1440.0      24.000      1.0000     2.73785E-03
 STRESS PERIOD TIME 8.38080E+06 1.39680E+05  2328.0      97.000     0.26557    
         TOTAL TIME 8.46720E+06 1.41120E+05  2352.0      98.000     0.26831    
1
 
 SOLVING FOR HEAD 

 OUTPUT CONTROL FOR STRESS PERIOD    2   TIME STEP  98
    SAVE HEAD FOR ALL LAYERS
    SAVE DRAWDOWN FOR ALL LAYERS
    SAVE BUDGET
    PRINT HEAD FOR ALL LAYERS
    PRINT BUDGET
 UBDSV1 SAVING "         STORAGE" ON UNIT  53 AT TIME STEP 98, STRESS PERIOD   2
 UBDSV2 SAVING "   CONSTANT HEAD" ON UNIT  53 AT TIME STEP 98, STRESS PERIOD   2
 UBDSV1 SAVING "FLOW RIGHT FACE " ON UNIT  53 AT TIME STEP 98, STRESS PERIOD   2
 UBDSV1 SAVING "FLOW FRONT FACE " ON UNIT  53 AT TIME STEP 98, STRESS PERIOD   2
1
              HEAD IN LAYER   1 AT END OF TIME STEP  98 IN STRESS PERIOD    2
  ---------------------------------------------------------------------------

            1           2           3           4           5           6           7           8           9          10
           11          12          13          14          15          16          17          18          19          20
           21          22          23          24          25          26          27          28          29          30
           31          32          33          34          35          36          37          38          39          40
           41          42          43          44          45          46          47          48          49          50
 ........................................................................................................................
   1    10.00       9.948       9.897       9.836       9.788       9.748       9.694       9.620       9.539       9.464    
        9.300       9.095       8.943       8.775       8.596       8.415       8.247       8.055       7.799       7.544    
        7.370       7.173       6.913       6.650       6.415       6.212       5.923       5.661       5.477       5.285    
        5.122       5.018       4.909       4.786       4.668       4.523       4.366       4.155       3.914       3.649    
        3.306       2.955       2.493       1.986       1.603       1.327       1.120      0.8839      0.5190       0.000    
   2    10.00       9.943       9.888       9.836       9.796       9.757       9.697       9.621       9.546       9.446    
        9.285       9.101       8.931       8.777       8.612       8.425       8.225       8.027       7.788       7.532    
        7.342       7.180       6.902       6.617       6.409       6.179       5.899       5.650       5.437       5.256    
        5.119       5.025       4.933       4.801       4.663       4.519       4.339       4.142       3.908       3.605    
        3.285       2.987       2.503       1.999       1.661       1.415       1.177      0.9130      0.5514       0.000    
   3    10.00       9.933       9.887       9.851       9.813       9.772       9.708       9.618       9.527       9.417    
        9.271       9.108       8.944       8.788       8.591       8.356       8.161       7.990       7.769       7.544    
        7.351       7.118       6.842       6.591       6.364       6.106       5.836       5.589       5.371       5.239    
        5.129       5.040       4.948       4.803       4.657       4.503       4.325       4.104       3.842       3.610    
        3.328       2.923       2.450       2.089       1.802       1.518       1.226      0.9253      0.5228       0.000    
   4    10.00       9.933       9.893       9.860       9.833       9.790       9.716       9.612       9.504       9.395    
        9.255       9.109       8.944       8.748       8.504       8.286       8.146       7.953       7.740       7.564    
        7.297       7.000       6.758       6.534       6.315       6.005       5.706       5.508       5.363       5.251    
        5.154       5.060       4.959       4.790       4.611       4.470       4.281       4.052       3.830       3.629    
        3.308       2.861       2.505       2.203       1.896       1.573       1.222      0.8706      0.4465       0.000    
   5    10.00       9.939       9.901       9.869       9.845       9.800       9.722       9.602       9.482       9.372    
        9.253       9.102       8.889       8.659       8.452       8.280       8.105       7.925       7.725       7.475    
        7.163       6.918       6.717       6.491       6.207       5.885       5.641       5.502       5.384       5.269    
        5.157       5.042       4.926       4.761       4.578       4.407       4.239       4.061       3.861       3.596    
        3.232       2.893       2.590       2.286       1.952       1.576       1.135      0.7322      0.3793       0.000    
   6    10.00       9.949       9.912       9.881       9.847       9.798       9.714       9.584       9.479       9.361    
        9.228       9.039       8.805       8.613       8.422       8.225       8.045       7.883       7.660       7.374    
        7.097       6.863       6.657       6.375       6.067       5.825       5.630       5.501       5.367       5.247    
        5.148       5.023       4.878       4.708       4.529       4.384       4.240       4.079       3.869       3.584    
        3.268       2.942       2.634       2.327       1.964       1.510       1.036      0.6877      0.3542       0.000    
   7    10.00       9.956       9.923       9.890       9.854       9.795       9.681       9.556       9.447       9.300    
        9.162       8.959       8.746       8.549       8.351       8.149       7.974       7.824       7.565       7.261    
        7.009       6.770       6.540       6.268       6.008       5.788       5.618       5.459       5.314       5.225    
        5.123       4.982       4.829       4.662       4.510       4.381       4.246       4.084       3.870       3.614    
        3.301       2.966       2.647       2.310       1.952       1.476      0.9893      0.6542      0.3098       0.000    
   8    10.00       9.963       9.934       9.898       9.856       9.760       9.620       9.501       9.363       9.223    
        9.070       8.861       8.679       8.477       8.255       8.054       7.904       7.724       7.476       7.181    
        6.888       6.670       6.478       6.197       5.924       5.729       5.535       5.362       5.267       5.178    
        5.055       4.915       4.787       4.643       4.488       4.358       4.255       4.134       3.928       3.635    
        3.294       2.998       2.701       2.310       1.912       1.380      0.9157      0.6401      0.2964       0.000    
   9    10.00       9.971       9.938       9.896       9.825       9.697       9.548       9.408       9.287       9.142    
        8.960       8.774       8.592       8.396       8.166       7.980       7.837       7.623       7.378       7.073    
        6.821       6.603       6.327       6.036       5.806       5.632       5.439       5.299       5.206       5.103    
        4.992       4.868       4.747       4.621       4.490       4.370       4.272       4.164       3.952       3.635    
        3.323       3.062       2.752       2.376       1.788       1.188      0.8717      0.5408      0.2062       0.000    
  10    10.00       9.971       9.936       9.878       9.768       9.615       9.448       9.339       9.224       9.051    
        8.892       8.708       8.527       8.313       8.099       7.931       7.736       7.515       7.255       7.008    
        6.760       6.420       6.135       5.908       5.714       5.556       5.378       5.237       5.144       5.063    
        4.948       4.813       4.706       4.591       4.476       4.397       4.300       4.175       3.932       3.620    
        3.379       3.151       2.796       2.230       1.547       1.114      0.7899      0.4824      0.2408       0.000    
  11    10.00       9.970       9.924       9.833       9.709       9.537       9.389       9.298       9.159       9.012    
        8.859       8.665       8.446       8.217       8.037       7.854       7.671       7.432       7.179       6.936    
        6.575       6.248       6.024       5.821       5.634       5.457       5.287       5.179       5.104       5.023    
        4.889       4.765       4.680       4.579       4.489       4.401       4.291       4.156       3.928       3.680    
        3.428       3.131       2.744       2.119       1.482       1.045      0.7391      0.5610      0.3101       0.000    
  12    10.00       9.968       9.903       9.786       9.622       9.450       9.333       9.241       9.119       8.986    
        8.817       8.611       8.390       8.187       8.004       7.802       7.590       7.344       7.086       6.751    
        6.395       6.149       5.928       5.720       5.512       5.338       5.221       5.144       5.045       4.936    
        4.817       4.730       4.655       4.578       4.501       4.412       4.296       4.135       3.925       3.704    
        3.433       3.111       2.581       1.877       1.335       1.028      0.8196      0.5949      0.3394       0.000    
  13    10.00       9.957       9.855       9.694       9.522       9.375       9.280       9.198       9.095       8.966    
        8.786       8.570       8.367       8.205       7.992       7.744       7.496       7.229       6.940       6.613    
        6.301       6.034       5.793       5.577       5.377       5.252       5.182       5.067       4.939       4.841    
        4.769       4.703       4.636       4.574       4.499       4.422       4.320       4.136       3.925       3.663    
        3.351       2.943       2.327       1.758       1.365       1.104      0.8610      0.5960      0.2947       0.000    
  14    10.00       9.921       9.775       9.596       9.437       9.320       9.257       9.181       9.082       8.939    
        8.741       8.555       8.390       8.220       7.976       7.682       7.415       7.112       6.792       6.452    
        6.150       5.882       5.646       5.433       5.279       5.194       5.105       4.963       4.857       4.786    
        4.736       4.672       4.618       4.560       4.494       4.434       4.312       4.123       3.902       3.574    
        3.208       2.726       2.253       1.840       1.450       1.146      0.8757      0.5963      0.2658       0.000    
  15    10.00       9.852       9.689       9.529       9.401       9.312       9.241       9.169       9.070       8.936    
        8.760       8.580       8.415       8.172       7.884       7.600       7.305       6.992       6.611       6.250    
        5.970       5.712       5.491       5.332       5.217       5.128       5.017       4.885       4.799       4.750    
        4.690       4.641       4.601       4.545       4.484       4.419       4.287       4.111       3.829       3.476    
        3.099       2.669       2.289       1.864       1.537       1.213      0.8866      0.5907      0.2425       0.000    
  16    10.00       9.827       9.650       9.503       9.393       9.311       9.238       9.172       9.075       8.936    
        8.770       8.596       8.389       8.079       7.763       7.526       7.235       6.816       6.382       6.049    
        5.764       5.551       5.371       5.237       5.111       5.031       4.907       4.802       4.739       4.683    
        4.640       4.612       4.571       4.519       4.464       4.387       4.266       4.051       3.745       3.429    
        3.109       2.699       2.274       1.901       1.593       1.253      0.8843      0.5298      0.1996       0.000    
  17    10.00       9.804       9.625       9.507       9.409       9.326       9.254       9.179       9.074       8.944    
        8.787       8.567       8.283       7.947       7.681       7.457       7.098       6.625       6.187       5.869    
        5.643       5.406       5.206       5.061       4.959       4.856       4.750       4.687       4.636       4.611    
        4.600       4.573       4.530       4.480       4.421       4.338       4.195       4.007       3.765       3.438    
        3.076       2.645       2.253       1.925       1.611       1.262      0.9031      0.5521      0.2337       0.000    
  18    10.00       9.792       9.624       9.523       9.433       9.353       9.281       9.191       9.087       8.947    
        8.759       8.496       8.180       7.896       7.636       7.305       6.888       6.457       6.072       5.759    
        5.481       5.178       5.007       4.887       4.797       4.680       4.613       4.558       4.527       4.541    
        4.541       4.518       4.476       4.420       4.360       4.272       4.139       3.990       3.781       3.482    
        3.015       2.557       2.238       1.927       1.660       1.295      0.8992      0.5422      0.2338       0.000    
  19    10.00       9.801       9.661       9.556       9.461       9.380       9.295       9.211       9.115       8.952    
        8.730       8.449       8.137       7.820       7.475       7.117       6.732       6.317       5.930       5.599    
        5.276       5.014       4.879       4.788       4.659       4.556       4.499       4.448       4.442       4.450    
        4.462       4.452       4.401       4.352       4.306       4.241       4.118       3.957       3.747       3.397    
        2.928       2.541       2.225       1.920       1.621       1.243      0.8649      0.5395      0.2546       0.000    
  20    10.00       9.812       9.692       9.600       9.508       9.412       9.312       9.221       9.124       8.958    
        8.716       8.424       8.059       7.648       7.252       6.961       6.575       6.132       5.794       5.467    
        5.180       4.964       4.800       4.659       4.495       4.423       4.387       4.363       4.369       4.372    
        4.380       4.361       4.323       4.300       4.266       4.202       4.061       3.900       3.662       3.269    
        2.867       2.561       2.196       1.848       1.522       1.149      0.8677      0.5362      0.2380       0.000    
  21    10.00       9.839       9.732       9.638       9.538       9.446       9.335       9.236       9.130       8.942    
        8.680       8.321       7.866       7.386       7.022       6.758       6.397       6.075       5.759       5.406    
        5.133       4.894       4.689       4.421       4.286       4.249       4.192       4.233       4.270       4.267    
        4.264       4.239       4.242       4.235       4.212       4.128       3.993       3.856       3.510       3.103    
        2.804       2.472       2.100       1.775       1.429       1.102      0.7857      0.4722      0.2375       0.000    
  22    10.00       9.874       9.761       9.659       9.562       9.475       9.348       9.219       9.096       8.901    
        8.580       8.128       7.616       7.169       6.857       6.585       6.311       6.079       5.731       5.384    
        5.098       4.755       4.385       4.108       4.006       3.905       3.918       4.026       4.065       4.085    
        4.103       4.104       4.136       4.163       4.142       4.060       3.931       3.675       3.282       3.023    
        2.702       2.345       2.010       1.697       1.402       1.014      0.6817      0.4524      0.2546       0.000    
  23    10.00       9.875       9.766       9.674       9.572       9.456       9.313       9.196       9.087       8.841    
        8.447       7.963       7.496       7.108       6.789       6.559       6.301       5.998       5.665       5.389    
        4.990       4.488       4.094       3.812       3.398       3.396       3.616       3.737       3.824       3.911    
        3.950       3.985       4.028       4.068       4.051       3.971       3.783       3.493       3.179       2.861    
        2.552       2.257       1.935       1.689       1.316      0.9220      0.6627      0.4348      0.2260       0.000    
  24    10.00       9.903       9.779       9.658       9.539       9.406       9.277       9.177       9.055       8.765    
        8.316       7.860       7.474       7.134       6.830       6.527       6.213       5.938       5.675       5.351    
        4.875       4.378       3.909       3.058       2.151       2.675       3.179       3.472       3.637       3.773    
        3.847       3.897       3.947       3.965       3.946       3.841       3.633       3.399       3.057       2.721    
        2.481       2.198       1.894       1.579       1.178      0.8549      0.6367      0.4069      0.1797       0.000    
  25    10.00       9.894       9.751       9.603       9.463       9.343       9.244       9.143       8.992       8.691    
        8.221       7.796       7.500       7.183       6.830       6.517       6.223       5.982       5.737       5.319    
        4.774       4.286       3.537       2.157     -0.7193       2.049       2.846       3.312       3.557       3.700    
        3.786       3.844       3.886       3.892       3.860       3.739       3.518       3.244       2.966       2.686    
        2.414       2.108       1.761       1.428       1.047      0.7839      0.6328      0.3947      0.1464       0.000    
  26    10.00       9.867       9.683       9.517       9.404       9.307       9.210       9.086       8.908       8.537    
        8.101       7.803       7.519       7.203       6.872       6.571       6.294       6.053       5.744       5.300    
        4.821       4.281       3.624       2.876       2.189       2.546       3.019       3.347       3.547       3.678    
        3.759       3.820       3.846       3.841       3.788       3.639       3.389       3.168       2.946       2.644    
        2.364       2.017       1.619       1.261      0.9507      0.7656      0.5974      0.3508      0.1494       0.000    
  27    10.00       9.838       9.642       9.487       9.392       9.265       9.137       8.981       8.743       8.392    
        8.084       7.821       7.532       7.223       6.899       6.660       6.467       6.140       5.750       5.297    
        4.890       4.498       3.967       3.471       3.079       3.134       3.313       3.473       3.600       3.693    
        3.779       3.829       3.837       3.811       3.734       3.562       3.361       3.167       2.908       2.624    
        2.334       1.916       1.459       1.123      0.9065      0.7520      0.5671      0.3703      0.1787       0.000    
  28    10.00       9.816       9.673       9.499       9.338       9.183       9.041       8.857       8.621       8.349    
        8.095       7.861       7.574       7.230       6.940       6.746       6.530       6.172       5.720       5.320    
        5.030       4.735       4.315       3.926       3.674       3.588       3.579       3.627       3.708       3.785    
        3.841       3.853       3.845       3.798       3.694       3.536       3.374       3.142       2.872       2.585    
        2.229       1.833       1.381       1.047      0.8962      0.7484      0.5842      0.3864      0.1793       0.000    
  29    10.00       9.823       9.644       9.461       9.268       9.118       8.958       8.754       8.555       8.339    
        8.113       7.881       7.603       7.311       7.061       6.830       6.543       6.147       5.735       5.422    
        5.174       4.912       4.565       4.217       4.011       3.897       3.826       3.823       3.863       3.889    
        3.893       3.888       3.861       3.792       3.670       3.531       3.378       3.160       2.860       2.495    
        2.169       1.748       1.295       1.033      0.8991      0.7536      0.5796      0.3773      0.1877       0.000    
  30    10.00       9.797       9.618       9.398       9.202       9.065       8.894       8.715       8.560       8.367    
        8.136       7.885       7.632       7.399       7.176       6.916       6.551       6.183       5.851       5.551    
        5.335       5.075       4.758       4.454       4.206       4.107       4.041       4.017       3.994       3.972    
        3.948       3.924       3.877       3.786       3.670       3.557       3.402       3.122       2.749       2.373    
        2.038       1.649       1.304       1.061      0.9199      0.7555      0.5694      0.3954      0.1941       0.000    
  31    10.00       9.771       9.564       9.353       9.177       9.034       8.872       8.714       8.561       8.374    
        8.146       7.894       7.676       7.483       7.275       6.983       6.622       6.299       6.035       5.767    
        5.535       5.240       4.926       4.670       4.417       4.258       4.194       4.132       4.086       4.039    
        4.007       3.958       3.889       3.798       3.684       3.555       3.309       2.995       2.681       2.311    
        1.994       1.605       1.267       1.089      0.9373      0.7822      0.5884      0.3958      0.1877       0.000    
  32    10.00       9.754       9.531       9.351       9.203       9.060       8.891       8.712       8.527       8.351    
        8.127       7.910       7.715       7.504       7.312       7.064       6.783       6.538       6.264       5.985    
        5.751       5.474       5.157       4.880       4.619       4.391       4.306       4.225       4.161       4.095    
        4.048       3.999       3.906       3.788       3.679       3.500       3.195       2.895       2.616       2.277    
        1.906       1.541       1.289       1.152      0.9851      0.7890      0.5840      0.3760      0.1877       0.000    
  33    10.00       9.747       9.556       9.412       9.264       9.099       8.897       8.697       8.500       8.299    
        8.114       7.931       7.740       7.538       7.325       7.133       6.926       6.717       6.492       6.218    
        5.946       5.687       5.418       5.094       4.772       4.514       4.386       4.306       4.228       4.145    
        4.085       4.017       3.917       3.799       3.639       3.392       3.076       2.820       2.548       2.151    
        1.810       1.567       1.365       1.201       1.011      0.8044      0.5532      0.3309      0.1492       0.000    
  34    10.00       9.770       9.614       9.479       9.315       9.113       8.901       8.669       8.452       8.285    
        8.118       7.952       7.779       7.571       7.383       7.197       7.018       6.850       6.636       6.358    
        6.100       5.864       5.598       5.262       4.909       4.622       4.455       4.362       4.272       4.180    
        4.100       4.026       3.925       3.780       3.584       3.280       2.969       2.733       2.408       2.054    
        1.840       1.678       1.483       1.272       1.021      0.7301      0.4474      0.2652      0.1100       0.000    
  35    10.00       9.808       9.668       9.531       9.356       9.130       8.888       8.631       8.426       8.282    
        8.170       8.003       7.812       7.592       7.391       7.260       7.128       6.956       6.735       6.470    
        6.223       5.989       5.744       5.370       4.972       4.699       4.517       4.407       4.303       4.198    
        4.116       4.028       3.909       3.723       3.424       3.105       2.895       2.643       2.307       2.091    
        1.939       1.754       1.558       1.351       1.034      0.6216      0.3442      0.2264      0.1150       0.000    
  36    10.00       9.831       9.710       9.579       9.394       9.126       8.832       8.590       8.443       8.331    
        8.180       7.992       7.817       7.623       7.446       7.315       7.190       7.039       6.864       6.619    
        6.363       6.116       5.816       5.418       5.025       4.748       4.574       4.447       4.321       4.210    
        4.120       4.007       3.821       3.549       3.275       3.049       2.847       2.583       2.310       2.163    
        2.008       1.842       1.644       1.377      0.9448      0.5245      0.3238      0.2074      0.1066       0.000    
  37    10.00       9.849       9.756       9.615       9.370       9.078       8.819       8.630       8.508       8.374    
        8.180       7.979       7.829       7.661       7.498       7.372       7.259       7.119       6.934       6.724    
        6.514       6.244       5.873       5.498       5.129       4.817       4.611       4.454       4.341       4.218    
        4.101       3.940       3.667       3.414       3.215       3.018       2.807       2.597       2.397       2.232    
        2.082       1.896       1.671       1.320      0.8684      0.5074      0.3043      0.1934      9.7025E-02   0.000    
  38    10.00       9.872       9.760       9.607       9.354       9.053       8.834       8.694       8.567       8.412    
        8.207       7.996       7.848       7.695       7.532       7.408       7.310       7.189       7.010       6.827    
        6.634       6.331       5.914       5.512       5.156       4.854       4.633       4.460       4.346       4.233    
        4.067       3.806       3.559       3.392       3.191       2.993       2.838       2.657       2.474       2.314    
        2.137       1.882       1.596       1.215      0.7662      0.4883      0.3437      0.2141      9.6094E-02   0.000    
  39    10.00       9.871       9.745       9.585       9.341       9.070       8.872       8.748       8.594       8.424    
        8.258       8.044       7.876       7.731       7.575       7.443       7.334       7.217       7.073       6.907    
        6.691       6.373       5.949       5.502       5.138       4.861       4.614       4.439       4.342       4.239    
        3.998       3.714       3.549       3.358       3.169       3.024       2.892       2.726       2.546       2.396    
        2.140       1.779       1.441       1.027      0.6862      0.5301      0.3948      0.2571      0.1323       0.000    
  40    10.00       9.862       9.751       9.589       9.365       9.138       8.946       8.784       8.602       8.446    
        8.322       8.116       7.904       7.758       7.613       7.466       7.346       7.253       7.129       6.940    
        6.696       6.337       5.909       5.492       5.116       4.831       4.561       4.420       4.335       4.199    
        3.980       3.753       3.529       3.327       3.190       3.062       2.936       2.780       2.613       2.416    
        2.070       1.675       1.308      0.9723      0.7374      0.5764      0.4414      0.3117      0.1531       0.000    
  41    10.00       9.881       9.793       9.636       9.407       9.171       8.989       8.845       8.667       8.481    
        8.335       8.151       7.956       7.818       7.651       7.475       7.370       7.273       7.119       6.918    
        6.670       6.325       5.899       5.490       5.116       4.740       4.486       4.405       4.316       4.212    
        4.032       3.761       3.532       3.368       3.229       3.114       2.974       2.824       2.651       2.345    
        1.939       1.553       1.232      0.9837      0.7802      0.6305      0.4860      0.3435      0.1809       0.000    
  42    10.00       9.912       9.815       9.665       9.469       9.246       9.041       8.893       8.735       8.532    
        8.347       8.171       8.008       7.876       7.702       7.514       7.390       7.261       7.095       6.871    
        6.593       6.219       5.850       5.447       4.963       4.623       4.480       4.417       4.339       4.224    
        4.015       3.777       3.560       3.393       3.279       3.155       3.030       2.867       2.594       2.190    
        1.833       1.543       1.263      0.9810      0.7917      0.6645      0.5257      0.3583      0.1989       0.000    
  43    10.00       9.931       9.828       9.676       9.484       9.300       9.119       8.954       8.762       8.557    
        8.387       8.210       8.050       7.928       7.767       7.560       7.398       7.252       7.026       6.742    
        6.469       6.111       5.767       5.313       4.854       4.623       4.508       4.435       4.358       4.238    
        4.039       3.819       3.609       3.443       3.333       3.210       3.048       2.816       2.418       2.058    
        1.833       1.575       1.280      0.9867      0.7856      0.6677      0.5605      0.3883      0.1820       0.000    
  44    10.00       9.924       9.837       9.680       9.507       9.375       9.196       8.975       8.760       8.590    
        8.422       8.248       8.107       7.980       7.797       7.581       7.397       7.223       6.957       6.667    
        6.340       5.980       5.617       5.160       4.812       4.638       4.540       4.474       4.391       4.240    
        4.034       3.857       3.671       3.516       3.403       3.239       3.024       2.693       2.284       2.042    
        1.837       1.568       1.272       1.004      0.7978      0.6711      0.5618      0.3810      0.1679       0.000    
  45    10.00       9.909       9.806       9.681       9.555       9.390       9.205       8.998       8.784       8.615    
        8.444       8.288       8.164       8.023       7.826       7.596       7.389       7.191       6.904       6.561    
        6.183       5.799       5.407       5.066       4.822       4.673       4.578       4.509       4.406       4.282    
        4.103       3.902       3.735       3.577       3.421       3.247       3.010       2.654       2.298       2.015    
        1.779       1.525       1.247       1.006      0.8249      0.7191      0.5555      0.3307      0.1508       0.000    
  46    10.00       9.891       9.784       9.685       9.546       9.360       9.182       9.014       8.806       8.626    
        8.475       8.330       8.207       8.042       7.833       7.630       7.410       7.151       6.839       6.465    
        6.019       5.634       5.317       5.056       4.870       4.738       4.621       4.529       4.448       4.309    
        4.120       3.947       3.785       3.607       3.451       3.281       3.015       2.605       2.228       1.975    
        1.751       1.505       1.243       1.030      0.8895      0.7534      0.5051      0.2483      0.1079       0.000    
  47    10.00       9.885       9.777       9.642       9.481       9.329       9.177       8.996       8.807       8.647    
        8.510       8.380       8.211       8.032       7.846       7.649       7.412       7.110       6.816       6.362    
        5.873       5.570       5.296       5.090       4.917       4.788       4.674       4.561       4.466       4.323    
        4.127       3.956       3.795       3.625       3.488       3.285       2.915       2.546       2.229       1.958    
        1.761       1.528       1.294       1.087      0.9129      0.6931      0.4170      0.2179      9.0746E-02   0.000    
  48    10.00       9.872       9.744       9.601       9.455       9.320       9.166       9.001       8.827       8.670    
        8.530       8.380       8.198       8.014       7.832       7.639       7.413       7.128       6.762       6.310    
        5.884       5.572       5.304       5.116       4.975       4.819       4.703       4.609       4.491       4.299    
        4.107       3.941       3.792       3.665       3.486       3.219       2.865       2.530       2.229       1.989    
        1.777       1.555       1.344       1.110      0.8489      0.5649      0.3573      0.2119      9.5740E-02   0.000    
  49    10.00       9.861       9.722       9.581       9.462       9.322       9.160       8.998       8.857       8.695    
        8.529       8.342       8.162       8.009       7.802       7.614       7.426       7.109       6.746       6.385    
        5.936       5.588       5.321       5.155       4.992       4.824       4.734       4.646       4.462       4.230    
        4.064       3.930       3.821       3.659       3.451       3.211       2.855       2.520       2.284       2.029    
        1.779       1.574       1.349       1.074      0.7532      0.5045      0.3578      0.2309      0.1185       0.000    
  50    10.00       9.867       9.727       9.584       9.455       9.317       9.173       9.013       8.866       8.721    
        8.518       8.323       8.158       7.953       7.743       7.599       7.420       7.174       6.815       6.458    
        6.001       5.563       5.331       5.163       4.992       4.856       4.748       4.631       4.414       4.192    
        4.055       3.944       3.818       3.649       3.456       3.226       2.867       2.523       2.293       2.063    
        1.826       1.567       1.314       1.019      0.7026      0.5165      0.3851      0.2610      0.1574       0.000    

 HEAD WILL BE SAVED ON UNIT   51 AT END OF TIME STEP  98, STRESS PERIOD    2

 DRAWDOWN WILL BE SAVED ON UNIT   52 AT END OF TIME STEP  98, STRESS PERIOD    2
1
  VOLUMETRIC BUDGET FOR ENTIRE MODEL AT END OF TIME STEP 98 IN STRESS PERIOD   2
  ------------------------------------------------------------------------------

     CUMULATIVE VOLUMES      L**3       RATES FOR THIS TIME STEP      L**3/T
     ------------------                 ------------------------

           IN:                                      IN:
           ---                                      ---
             STORAGE =       46452.7852               STORAGE =         419.4879
       CONSTANT HEAD =       39023.3008         CONSTANT HEAD =         436.7228
               WELLS =           0.0000                 WELLS =           0.0000

            TOTAL IN =       85476.0859              TOTAL IN =         856.2107

          OUT:                                     OUT:
          ----                                     ----
             STORAGE =       1.1143E-02               STORAGE =           0.0000
       CONSTANT HEAD =       36476.0742         CONSTANT HEAD =         356.2109
               WELLS =       49000.0000                 WELLS =         500.0000

           TOTAL OUT =       85476.0859             TOTAL OUT =         856.2109

            IN - OUT =           0.0000              IN - OUT =      -2.4414E-04

 PERCENT DISCREPANCY =           0.00     PERCENT DISCREPANCY =           0.00






          TIME SUMMARY AT END OF TIME STEP  98 IN STRESS PERIOD    2
                    SECONDS     MINUTES      HOURS       DAYS        YEARS
                    -----------------------------------------------------------
   TIME STEP LENGTH  86400.      1440.0      24.000      1.0000     2.73785E-03
 STRESS PERIOD TIME 8.46720E+06 1.41120E+05  2352.0      98.000     0.26831    
         TOTAL TIME 8.55360E+06 1.42560E+05  2376.0      99.000     0.27105    
1
 
 SOLVING FOR HEAD 

 OUTPUT CONTROL FOR STRESS PERIOD    2   TIME STEP  99
    SAVE HEAD FOR ALL LAYERS
    SAVE DRAWDOWN FOR ALL LAYERS
    SAVE BUDGET
    PRINT HEAD FOR ALL LAYERS
    PRINT BUDGET
 UBDSV1 SAVING "         STORAGE" ON UNIT  53 AT TIME STEP 99, STRESS PERIOD   2
 UBDSV2 SAVING "   CONSTANT HEAD" ON UNIT  53 AT TIME STEP 99, STRESS PERIOD   2
 UBDSV1 SAVING "FLOW RIGHT FACE " ON UNIT  53 AT TIME STEP 99, STRESS PERIOD   2
 UBDSV1 SAVING "FLOW FRONT FACE " ON UNIT  53 AT TIME STEP 99, STRESS PERIOD   2
1
              HEAD IN LAYER   1 AT END OF TIME STEP  99 IN STRESS PERIOD    2
  ---------------------------------------------------------------------------

            1           2           3           4           5           6           7           8           9          10
           11          12          13          14          15          16          17          18          19          20
           21          22          23          24          25          26          27          28          29          30
           31          32          33          34          35          36          37          38          39          40
           41          42          43          44          45          46          47          48          49          50
 ........................................................................................................................
   1    10.00       9.948       9.896       9.836       9.788       9.747       9.693       9.619       9.538       9.463    
        9.299       9.093       8.941       8.773       8.593       8.412       8.244       8.052       7.795       7.540    
        7.366       7.168       6.908       6.645       6.410       6.207       5.918       5.655       5.471       5.279    
        5.116       5.012       4.903       4.780       4.663       4.517       4.361       4.150       3.909       3.644    
        3.302       2.952       2.490       1.984       1.601       1.325       1.119      0.8829      0.5185       0.000    
   2    10.00       9.942       9.887       9.836       9.795       9.756       9.696       9.620       9.545       9.445    
        9.284       9.100       8.929       8.775       8.609       8.422       8.222       8.024       7.785       7.527    
        7.338       7.175       6.897       6.612       6.403       6.173       5.893       5.644       5.431       5.250    
        5.113       5.019       4.927       4.796       4.658       4.514       4.334       4.137       3.903       3.601    
        3.281       2.984       2.500       1.997       1.659       1.413       1.176      0.9120      0.5508       0.000    
   3    10.00       9.933       9.887       9.851       9.812       9.772       9.707       9.617       9.526       9.416    
        9.270       9.106       8.942       8.786       8.588       8.353       8.157       7.986       7.766       7.540    
        7.347       7.113       6.837       6.586       6.359       6.101       5.831       5.583       5.365       5.233    
        5.123       5.034       4.942       4.798       4.652       4.497       4.320       4.099       3.837       3.606    
        3.324       2.919       2.447       2.087       1.800       1.516       1.224      0.9243      0.5223       0.000    
   4    10.00       9.933       9.892       9.860       9.833       9.790       9.716       9.611       9.503       9.394    
        9.254       9.107       8.942       8.746       8.501       8.282       8.143       7.950       7.736       7.560    
        7.292       6.995       6.753       6.529       6.309       5.999       5.700       5.502       5.357       5.245    
        5.148       5.054       4.953       4.784       4.605       4.464       4.275       4.047       3.825       3.625    
        3.304       2.858       2.502       2.201       1.893       1.571       1.220      0.8697      0.4460       0.000    
   5    10.00       9.939       9.901       9.869       9.845       9.800       9.721       9.601       9.481       9.371    
        9.252       9.100       8.887       8.657       8.449       8.277       8.102       7.921       7.721       7.471    
        7.158       6.913       6.712       6.486       6.201       5.879       5.635       5.496       5.378       5.263    
        5.150       5.036       4.920       4.755       4.572       4.402       4.233       4.055       3.856       3.591    
        3.228       2.890       2.587       2.284       1.949       1.574       1.134      0.7314      0.3789       0.000    
   6    10.00       9.949       9.912       9.880       9.847       9.798       9.713       9.584       9.478       9.360    
        9.226       9.037       8.803       8.611       8.419       8.221       8.042       7.880       7.656       7.369    
        7.092       6.858       6.651       6.370       6.061       5.819       5.623       5.495       5.360       5.241    
        5.142       5.017       4.872       4.702       4.523       4.378       4.234       4.074       3.864       3.579    
        3.264       2.938       2.630       2.324       1.962       1.509       1.035      0.6869      0.3538       0.000    
   7    10.00       9.956       9.923       9.890       9.854       9.794       9.681       9.555       9.446       9.298    
        9.160       8.957       8.744       8.546       8.348       8.145       7.970       7.820       7.561       7.256    
        7.004       6.765       6.535       6.262       6.001       5.782       5.611       5.453       5.308       5.218    
        5.117       4.976       4.823       4.656       4.503       4.375       4.240       4.078       3.865       3.609    
        3.297       2.962       2.644       2.307       1.949       1.474      0.9881      0.6534      0.3094       0.000    
   8    10.00       9.963       9.934       9.898       9.856       9.759       9.620       9.500       9.362       9.222    
        9.068       8.859       8.677       8.474       8.251       8.051       7.900       7.720       7.471       7.175    
        6.883       6.664       6.472       6.191       5.918       5.722       5.528       5.355       5.260       5.172    
        5.048       4.908       4.780       4.636       4.482       4.352       4.249       4.128       3.923       3.630    
        3.290       2.994       2.698       2.307       1.909       1.379      0.9146      0.6394      0.2960       0.000    
   9    10.00       9.971       9.938       9.896       9.825       9.697       9.547       9.407       9.285       9.140    
        8.957       8.772       8.589       8.393       8.162       7.976       7.833       7.618       7.373       7.068    
        6.815       6.597       6.321       6.030       5.799       5.625       5.432       5.292       5.199       5.096    
        4.985       4.861       4.740       4.614       4.483       4.363       4.265       4.158       3.946       3.630    
        3.318       3.058       2.748       2.373       1.786       1.186      0.8707      0.5401      0.2060       0.000    
  10    10.00       9.971       9.936       9.878       9.767       9.614       9.447       9.338       9.222       9.049    
        8.890       8.705       8.523       8.309       8.095       7.927       7.732       7.510       7.250       7.003    
        6.754       6.413       6.129       5.901       5.707       5.549       5.370       5.230       5.136       5.056    
        4.940       4.806       4.699       4.584       4.469       4.390       4.294       4.169       3.927       3.615    
        3.374       3.147       2.792       2.227       1.545       1.112      0.7889      0.4818      0.2405       0.000    
  11    10.00       9.970       9.924       9.833       9.708       9.536       9.388       9.296       9.157       9.009    
        8.856       8.662       8.443       8.213       8.032       7.849       7.666       7.427       7.173       6.930    
        6.569       6.241       6.017       5.814       5.626       5.450       5.279       5.172       5.097       5.015    
        4.882       4.758       4.673       4.572       4.482       4.394       4.284       4.150       3.922       3.675    
        3.423       3.127       2.740       2.116       1.480       1.044      0.7381      0.5603      0.3097       0.000    
  12    10.00       9.968       9.903       9.785       9.621       9.449       9.331       9.239       9.117       8.984    
        8.815       8.607       8.386       8.183       8.000       7.797       7.586       7.338       7.080       6.745    
        6.388       6.142       5.921       5.713       5.505       5.330       5.213       5.136       5.038       4.928    
        4.809       4.722       4.647       4.571       4.494       4.404       4.289       4.129       3.919       3.699    
        3.428       3.106       2.577       1.875       1.333       1.027      0.8186      0.5941      0.3389       0.000    
  13    10.00       9.957       9.855       9.693       9.521       9.373       9.278       9.196       9.092       8.963    
        8.784       8.567       8.364       8.201       7.988       7.739       7.491       7.223       6.934       6.606    
        6.294       6.027       5.786       5.569       5.369       5.244       5.174       5.059       4.931       4.833    
        4.761       4.695       4.628       4.566       4.492       4.415       4.313       4.130       3.919       3.657    
        3.346       2.938       2.323       1.755       1.363       1.103      0.8598      0.5952      0.2943       0.000    
  14    10.00       9.921       9.774       9.595       9.435       9.319       9.255       9.179       9.080       8.936    
        8.738       8.552       8.386       8.216       7.971       7.677       7.410       7.106       6.786       6.445    
        6.142       5.874       5.638       5.425       5.271       5.186       5.097       4.955       4.849       4.778    
        4.727       4.664       4.610       4.553       4.486       4.426       4.304       4.116       3.895       3.568    
        3.203       2.722       2.250       1.838       1.448       1.144      0.8745      0.5955      0.2655       0.000    
  15    10.00       9.852       9.688       9.528       9.399       9.310       9.239       9.167       9.068       8.934    
        8.757       8.576       8.411       8.168       7.879       7.595       7.299       6.986       6.604       6.242    
        5.963       5.704       5.483       5.323       5.209       5.120       5.008       4.877       4.791       4.742    
        4.682       4.633       4.593       4.537       4.476       4.411       4.280       4.104       3.822       3.471    
        3.094       2.665       2.286       1.862       1.535       1.211      0.8854      0.5899      0.2422       0.000    
  16    10.00       9.827       9.649       9.502       9.391       9.309       9.236       9.170       9.073       8.933    
        8.767       8.592       8.386       8.074       7.757       7.521       7.229       6.809       6.374       6.042    
        5.756       5.543       5.363       5.228       5.102       5.022       4.899       4.793       4.730       4.674    
        4.632       4.604       4.562       4.510       4.456       4.379       4.258       4.043       3.739       3.423    
        3.104       2.695       2.270       1.898       1.591       1.251      0.8831      0.5290      0.1993       0.000    
  17    10.00       9.803       9.624       9.506       9.407       9.324       9.252       9.177       9.071       8.941    
        8.784       8.563       8.278       7.942       7.676       7.452       7.091       6.618       6.180       5.861    
        5.635       5.397       5.198       5.053       4.950       4.847       4.741       4.678       4.627       4.602    
        4.591       4.564       4.522       4.471       4.413       4.330       4.188       4.000       3.758       3.432    
        3.071       2.641       2.250       1.922       1.609       1.260      0.9019      0.5513      0.2333       0.000    
  18    10.00       9.792       9.623       9.521       9.432       9.351       9.280       9.189       9.084       8.944    
        8.756       8.493       8.176       7.891       7.630       7.299       6.881       6.449       6.064       5.751    
        5.472       5.169       4.998       4.878       4.788       4.671       4.604       4.549       4.518       4.532    
        4.532       4.509       4.467       4.411       4.351       4.264       4.132       3.982       3.774       3.475    
        3.009       2.553       2.235       1.924       1.658       1.293      0.8979      0.5415      0.2335       0.000    
  19    10.00       9.801       9.660       9.555       9.460       9.379       9.294       9.209       9.113       8.949    
        8.727       8.446       8.132       7.815       7.469       7.110       6.725       6.310       5.922       5.591    
        5.268       5.006       4.870       4.779       4.650       4.546       4.490       4.439       4.433       4.441    
        4.453       4.444       4.393       4.344       4.297       4.232       4.110       3.949       3.740       3.390    
        2.923       2.537       2.221       1.917       1.619       1.241      0.8637      0.5388      0.2542       0.000    
  20    10.00       9.812       9.692       9.599       9.507       9.411       9.310       9.219       9.121       8.955    
        8.713       8.420       8.054       7.642       7.246       6.955       6.567       6.125       5.786       5.458    
        5.171       4.955       4.791       4.650       4.486       4.414       4.378       4.353       4.360       4.362    
        4.371       4.352       4.314       4.291       4.257       4.194       4.053       3.892       3.655       3.263    
        2.862       2.556       2.193       1.845       1.520       1.147      0.8665      0.5355      0.2377       0.000    
  21    10.00       9.839       9.731       9.637       9.536       9.444       9.333       9.234       9.128       8.939    
        8.677       8.317       7.860       7.380       7.015       6.751       6.389       6.067       5.751       5.397    
        5.124       4.885       4.680       4.412       4.276       4.240       4.183       4.224       4.261       4.258    
        4.255       4.230       4.233       4.226       4.203       4.119       3.985       3.848       3.503       3.097    
        2.799       2.468       2.096       1.772       1.427       1.101      0.7846      0.4715      0.2371       0.000    
  22    10.00       9.873       9.760       9.658       9.560       9.473       9.347       9.217       9.093       8.898    
        8.576       8.124       7.610       7.162       6.850       6.577       6.303       6.071       5.722       5.375    
        5.089       4.746       4.376       4.099       3.997       3.896       3.909       4.017       4.056       4.075    
        4.093       4.094       4.127       4.154       4.133       4.051       3.923       3.667       3.276       3.017    
        2.697       2.340       2.006       1.694       1.400       1.013      0.6807      0.4518      0.2542       0.000    
  23    10.00       9.875       9.766       9.674       9.571       9.455       9.311       9.194       9.084       8.838    
        8.443       7.958       7.491       7.101       6.782       6.551       6.294       5.989       5.657       5.380    
        4.981       4.479       4.084       3.802       3.388       3.386       3.607       3.727       3.814       3.902    
        3.940       3.975       4.018       4.058       4.041       3.962       3.775       3.486       3.173       2.855    
        2.548       2.253       1.931       1.686       1.314      0.9206      0.6617      0.4342      0.2257       0.000    
  24    10.00       9.902       9.778       9.657       9.538       9.405       9.275       9.175       9.052       8.762    
        8.312       7.854       7.468       7.127       6.823       6.520       6.206       5.930       5.667       5.343    
        4.866       4.368       3.900       3.048       2.141       2.665       3.169       3.462       3.627       3.763    
        3.837       3.887       3.937       3.955       3.937       3.831       3.624       3.391       3.051       2.716    
        2.477       2.194       1.890       1.576       1.176      0.8536      0.6358      0.4063      0.1794       0.000    
  25    10.00       9.893       9.750       9.602       9.462       9.341       9.242       9.141       8.989       8.688    
        8.217       7.791       7.494       7.176       6.823       6.509       6.215       5.974       5.728       5.310    
        4.765       4.277       3.528       2.147     -0.7300       2.039       2.836       3.302       3.547       3.690    
        3.776       3.834       3.876       3.883       3.850       3.730       3.510       3.237       2.960       2.680    
        2.409       2.104       1.757       1.425       1.045      0.7827      0.6319      0.3942      0.1462       0.000    
  26    10.00       9.866       9.682       9.515       9.403       9.305       9.208       9.083       8.905       8.533    
        8.096       7.798       7.513       7.196       6.865       6.563       6.286       6.045       5.735       5.291    
        4.811       4.272       3.615       2.866       2.179       2.536       3.009       3.337       3.536       3.668    
        3.749       3.810       3.836       3.831       3.778       3.630       3.381       3.160       2.940       2.639    
        2.359       2.013       1.616       1.259      0.9491      0.7644      0.5964      0.3503      0.1492       0.000    
  27    10.00       9.837       9.641       9.485       9.390       9.263       9.135       8.978       8.739       8.388    
        8.079       7.816       7.526       7.217       6.892       6.652       6.459       6.132       5.741       5.288    
        4.881       4.489       3.957       3.461       3.069       3.124       3.303       3.463       3.590       3.683    
        3.769       3.819       3.827       3.801       3.725       3.553       3.353       3.160       2.901       2.619    
        2.330       1.912       1.457       1.121      0.9050      0.7509      0.5663      0.3697      0.1784       0.000    
  28    10.00       9.816       9.672       9.498       9.337       9.181       9.038       8.854       8.617       8.345    
        8.091       7.856       7.568       7.223       6.934       6.739       6.523       6.164       5.712       5.312    
        5.021       4.726       4.305       3.916       3.664       3.578       3.569       3.617       3.698       3.775    
        3.831       3.843       3.836       3.789       3.685       3.527       3.366       3.135       2.865       2.579    
        2.224       1.830       1.378       1.046      0.8947      0.7473      0.5833      0.3858      0.1790       0.000    
  29    10.00       9.822       9.643       9.459       9.266       9.116       8.955       8.751       8.551       8.335    
        8.109       7.875       7.597       7.305       7.055       6.823       6.536       6.139       5.727       5.414    
        5.165       4.903       4.556       4.207       4.001       3.888       3.816       3.813       3.853       3.879    
        3.883       3.878       3.851       3.783       3.661       3.523       3.370       3.153       2.853       2.490    
        2.165       1.745       1.293       1.031      0.8977      0.7524      0.5787      0.3767      0.1874       0.000    
  30    10.00       9.797       9.617       9.396       9.200       9.062       8.891       8.711       8.557       8.363    
        8.131       7.880       7.626       7.393       7.170       6.909       6.544       6.175       5.843       5.542    
        5.327       5.066       4.748       4.445       4.196       4.097       4.032       4.007       3.984       3.963    
        3.938       3.915       3.868       3.777       3.661       3.549       3.394       3.115       2.743       2.368    
        2.034       1.646       1.302       1.059      0.9184      0.7543      0.5685      0.3948      0.1938       0.000    
  31    10.00       9.770       9.563       9.352       9.175       9.032       8.870       8.711       8.558       8.370    
        8.142       7.890       7.670       7.478       7.269       6.976       6.615       6.291       6.027       5.759    
        5.527       5.231       4.917       4.661       4.408       4.248       4.185       4.122       4.076       4.030    
        3.997       3.949       3.880       3.789       3.675       3.547       3.302       2.989       2.676       2.307    
        1.990       1.602       1.265       1.087      0.9359      0.7810      0.5876      0.3952      0.1874       0.000    
  32    10.00       9.753       9.530       9.350       9.201       9.058       8.888       8.708       8.523       8.347    
        8.123       7.905       7.710       7.498       7.306       7.058       6.776       6.530       6.257       5.977    
        5.742       5.466       5.148       4.871       4.609       4.382       4.297       4.215       4.151       4.086    
        4.039       3.990       3.898       3.780       3.671       3.492       3.188       2.889       2.611       2.273    
        1.902       1.538       1.287       1.150      0.9836      0.7878      0.5831      0.3754      0.1874       0.000    
  33    10.00       9.746       9.555       9.411       9.262       9.096       8.894       8.694       8.497       8.295    
        8.110       7.926       7.735       7.533       7.319       7.126       6.920       6.710       6.485       6.211    
        5.938       5.678       5.409       5.085       4.763       4.505       4.377       4.297       4.219       4.136    
        4.077       4.008       3.909       3.791       3.631       3.384       3.070       2.814       2.543       2.147    
        1.807       1.565       1.363       1.199       1.009      0.8033      0.5524      0.3304      0.1490       0.000    
  34    10.00       9.769       9.613       9.478       9.313       9.111       8.898       8.666       8.449       8.281    
        8.114       7.947       7.774       7.566       7.377       7.191       7.012       6.844       6.629       6.351    
        6.093       5.856       5.590       5.254       4.901       4.613       4.446       4.354       4.264       4.171    
        4.091       4.018       3.917       3.772       3.577       3.274       2.964       2.728       2.404       2.051    
        1.838       1.676       1.481       1.270       1.020      0.7290      0.4468      0.2648      0.1099       0.000    
  35    10.00       9.807       9.668       9.530       9.355       9.128       8.885       8.628       8.422       8.278    
        8.166       7.999       7.807       7.587       7.386       7.254       7.122       6.950       6.728       6.462    
        6.216       5.982       5.736       5.362       4.964       4.691       4.508       4.399       4.295       4.190    
        4.108       4.020       3.901       3.716       3.418       3.100       2.890       2.639       2.304       2.088    
        1.936       1.752       1.556       1.349       1.033      0.6207      0.3437      0.2261      0.1148       0.000    
  36    10.00       9.831       9.709       9.578       9.393       9.124       8.829       8.587       8.439       8.327    
        8.176       7.987       7.812       7.618       7.441       7.309       7.184       7.033       6.857       6.612    
        6.356       6.108       5.808       5.410       5.017       4.739       4.566       4.439       4.313       4.202    
        4.112       3.999       3.814       3.542       3.270       3.044       2.842       2.579       2.307       2.160    
        2.005       1.840       1.642       1.375      0.9436      0.5238      0.3234      0.2071      0.1065       0.000    
  37    10.00       9.849       9.755       9.615       9.369       9.076       8.816       8.627       8.504       8.370    
        8.176       7.975       7.824       7.656       7.493       7.367       7.253       7.113       6.928       6.717    
        6.507       6.237       5.866       5.491       5.121       4.809       4.603       4.446       4.334       4.211    
        4.094       3.933       3.661       3.409       3.210       3.014       2.803       2.593       2.394       2.229    
        2.079       1.893       1.668       1.318      0.8673      0.5068      0.3039      0.1932      9.6906E-02   0.000    
  38    10.00       9.872       9.759       9.606       9.352       9.051       8.832       8.691       8.564       8.409    
        8.203       7.991       7.844       7.690       7.527       7.402       7.304       7.183       7.004       6.820    
        6.627       6.325       5.907       5.504       5.149       4.847       4.626       4.453       4.339       4.227    
        4.061       3.800       3.554       3.387       3.187       2.989       2.835       2.653       2.470       2.311    
        2.134       1.880       1.594       1.214      0.7653      0.4878      0.3433      0.2139      9.5983E-02   0.000    
  39    10.00       9.871       9.744       9.585       9.340       9.067       8.869       8.745       8.591       8.421    
        8.254       8.040       7.871       7.726       7.570       7.438       7.328       7.211       7.068       6.901    
        6.684       6.367       5.943       5.496       5.131       4.854       4.608       4.433       4.336       4.233    
        3.992       3.709       3.544       3.353       3.165       3.020       2.888       2.722       2.543       2.393    
        2.137       1.777       1.439       1.026      0.6855      0.5296      0.3944      0.2568      0.1321       0.000    
  40    10.00       9.862       9.751       9.588       9.364       9.136       8.944       8.781       8.599       8.442    
        8.318       8.112       7.900       7.753       7.608       7.461       7.341       7.248       7.124       6.934    
        6.690       6.331       5.903       5.486       5.110       4.825       4.555       4.415       4.330       4.193    
        3.975       3.749       3.525       3.323       3.186       3.059       2.932       2.777       2.610       2.413    
        2.067       1.674       1.307      0.9712      0.7366      0.5758      0.4410      0.3113      0.1529       0.000    
  41    10.00       9.881       9.793       9.635       9.405       9.169       8.987       8.842       8.664       8.477    
        8.331       8.147       7.952       7.813       7.646       7.470       7.365       7.268       7.114       6.913    
        6.665       6.319       5.894       5.484       5.111       4.734       4.481       4.400       4.311       4.207    
        4.027       3.757       3.528       3.364       3.225       3.110       2.971       2.820       2.648       2.343    
        1.937       1.552       1.231      0.9826      0.7794      0.6299      0.4856      0.3431      0.1808       0.000    
  42    10.00       9.911       9.814       9.665       9.468       9.244       9.039       8.891       8.732       8.529    
        8.344       8.168       8.004       7.872       7.698       7.509       7.385       7.256       7.090       6.866    
        6.588       6.214       5.845       5.442       4.958       4.618       4.476       4.413       4.335       4.219    
        4.010       3.773       3.556       3.389       3.275       3.151       3.027       2.864       2.591       2.187    
        1.831       1.542       1.262      0.9800      0.7909      0.6638      0.5252      0.3580      0.1987       0.000    
  43    10.00       9.931       9.828       9.675       9.483       9.299       9.117       8.952       8.760       8.554    
        8.384       8.207       8.047       7.924       7.763       7.556       7.393       7.247       7.022       6.737    
        6.464       6.107       5.763       5.308       4.850       4.619       4.504       4.430       4.354       4.234    
        4.035       3.816       3.606       3.439       3.330       3.206       3.044       2.813       2.416       2.056    
        1.831       1.574       1.279      0.9858      0.7849      0.6671      0.5600      0.3880      0.1818       0.000    
  44    10.00       9.924       9.837       9.680       9.506       9.374       9.194       8.973       8.758       8.587    
        8.419       8.245       8.104       7.977       7.793       7.577       7.393       7.219       6.953       6.663    
        6.336       5.976       5.613       5.156       4.808       4.634       4.536       4.470       4.387       4.236    
        4.030       3.854       3.668       3.512       3.400       3.236       3.021       2.690       2.282       2.040    
        1.835       1.566       1.271       1.003      0.7971      0.6705      0.5613      0.3807      0.1678       0.000    
  45    10.00       9.909       9.805       9.680       9.555       9.389       9.204       8.996       8.782       8.613    
        8.441       8.285       8.161       8.020       7.823       7.593       7.385       7.187       6.900       6.557    
        6.180       5.795       5.403       5.063       4.818       4.670       4.574       4.505       4.402       4.278    
        4.099       3.898       3.731       3.573       3.417       3.244       3.007       2.652       2.296       2.013    
        1.777       1.523       1.246       1.005      0.8242      0.7185      0.5550      0.3304      0.1507       0.000    
  46    10.00       9.891       9.784       9.685       9.545       9.359       9.181       9.013       8.804       8.624    
        8.473       8.327       8.204       8.039       7.831       7.627       7.406       7.148       6.836       6.462    
        6.015       5.631       5.314       5.053       4.866       4.735       4.618       4.525       4.445       4.305    
        4.117       3.944       3.782       3.603       3.448       3.278       3.012       2.602       2.226       1.973    
        1.750       1.504       1.242       1.030      0.8888      0.7528      0.5047      0.2481      0.1079       0.000    
  47    10.00       9.885       9.777       9.641       9.481       9.328       9.176       8.995       8.806       8.645    
        8.508       8.378       8.208       8.030       7.844       7.646       7.409       7.107       6.813       6.359    
        5.870       5.567       5.292       5.087       4.913       4.785       4.670       4.557       4.462       4.319    
        4.123       3.952       3.792       3.622       3.485       3.282       2.913       2.544       2.227       1.956    
        1.760       1.527       1.293       1.086      0.9122      0.6926      0.4166      0.2177      9.0678E-02   0.000    
  48    10.00       9.872       9.744       9.600       9.454       9.319       9.165       8.999       8.825       8.668    
        8.528       8.378       8.196       8.012       7.830       7.636       7.410       7.125       6.759       6.307    
        5.881       5.569       5.301       5.112       4.971       4.816       4.699       4.605       4.488       4.296    
        4.103       3.938       3.789       3.662       3.483       3.216       2.863       2.528       2.228       1.988    
        1.776       1.554       1.343       1.109      0.8483      0.5645      0.3570      0.2118      9.5673E-02   0.000    
  49    10.00       9.861       9.722       9.581       9.461       9.322       9.159       8.996       8.856       8.693    
        8.527       8.340       8.160       8.007       7.800       7.612       7.424       7.106       6.743       6.382    
        5.933       5.585       5.318       5.152       4.988       4.821       4.730       4.642       4.458       4.226    
        4.060       3.927       3.818       3.656       3.448       3.209       2.853       2.518       2.282       2.028    
        1.778       1.573       1.348       1.073      0.7527      0.5042      0.3575      0.2308      0.1184       0.000    
  50    10.00       9.866       9.727       9.584       9.454       9.316       9.171       9.012       8.864       8.719    
        8.516       8.321       8.156       7.950       7.740       7.596       7.418       7.172       6.812       6.455    
        5.998       5.559       5.327       5.159       4.989       4.852       4.744       4.628       4.410       4.189    
        4.052       3.941       3.815       3.646       3.454       3.224       2.864       2.521       2.291       2.062    
        1.824       1.566       1.313       1.018      0.7021      0.5161      0.3849      0.2609      0.1573       0.000    

 HEAD WILL BE SAVED ON UNIT   51 AT END OF TIME STEP  99, STRESS PERIOD    2

 DRAWDOWN WILL BE SAVED ON UNIT   52 AT END OF TIME STEP  99, STRESS PERIOD    2
1
  VOLUMETRIC BUDGET FOR ENTIRE MODEL AT END OF TIME STEP 99 IN STRESS PERIOD   2
  ------------------------------------------------------------------------------

     CUMULATIVE VOLUMES      L**3       RATES FOR THIS TIME STEP      L**3/T
     ------------------                 ------------------------

           IN:                                      IN:
           ---                                      ---
             STORAGE =       46870.8477               STORAGE =         418.0608
       CONSTANT HEAD =       39461.0234         CONSTANT HEAD =         437.7223
               WELLS =           0.0000                 WELLS =           0.0000

            TOTAL IN =       86331.8750              TOTAL IN =         855.7831

          OUT:                                     OUT:
          ----                                     ----
             STORAGE =       1.1143E-02               STORAGE =           0.0000
       CONSTANT HEAD =       36831.8594         CONSTANT HEAD =         355.7838
               WELLS =       49500.0000                 WELLS =         500.0000

           TOTAL OUT =       86331.8672             TOTAL OUT =         855.7838

            IN - OUT =       7.8125E-03              IN - OUT =      -7.3242E-04

 PERCENT DISCREPANCY =           0.00     PERCENT DISCREPANCY =           0.00






          TIME SUMMARY AT END OF TIME STEP  99 IN STRESS PERIOD    2
                    SECONDS     MINUTES      HOURS       DAYS        YEARS
                    -----------------------------------------------------------
   TIME STEP LENGTH  86400.      1440.0      24.000      1.0000     2.73785E-03
 STRESS PERIOD TIME 8.55360E+06 1.42560E+05  2376.0      99.000     0.27105    
         TOTAL TIME 8.64000E+06 1.44000E+05  2400.0      100.00     0.27379    
1
 
 SOLVING FOR HEAD 

 OUTPUT CONTROL FOR STRESS PERIOD    2   TIME STEP 100
    SAVE HEAD FOR ALL LAYERS
    SAVE DRAWDOWN FOR ALL LAYERS
    SAVE BUDGET
    PRINT HEAD FOR ALL LAYERS
    PRINT BUDGET
 UBDSV1 SAVING "         STORAGE" ON UNIT  53 AT TIME STEP100, STRESS PERIOD   2
 UBDSV2 SAVING "   CONSTANT HEAD" ON UNIT  53 AT TIME STEP100, STRESS PERIOD   2
 UBDSV1 SAVING "FLOW RIGHT FACE " ON UNIT  53 AT TIME STEP100, STRESS PERIOD   2
 UBDSV1 SAVING "FLOW FRONT FACE " ON UNIT  53 AT TIME STEP100, STRESS PERIOD   2
1
              HEAD IN LAYER   1 AT END OF TIME STEP 100 IN STRESS PERIOD    2
  ---------------------------------------------------------------------------

            1           2           3           4           5           6           7           8           9          10
           11          12          13          14          15          16          17          18          19          20
           21          22          23          24          25          26          27          28          29          30
           31          32          33          34          35          36          37          38          39          40
           41          42          43          44          45          46          47          48          49          50
 ........................................................................................................................
   1    10.00       9.948       9.896       9.835       9.787       9.747       9.693       9.618       9.537       9.462    
        9.297       9.091       8.939       8.770       8.591       8.409       8.241       8.048       7.792       7.536    
        7.362       7.164       6.903       6.640       6.405       6.201       5.912       5.650       5.465       5.273    
        5.110       5.007       4.897       4.775       4.657       4.512       4.356       4.145       3.904       3.640    
        3.298       2.949       2.488       1.982       1.600       1.324       1.118      0.8819      0.5179       0.000    
   2    10.00       9.942       9.887       9.835       9.795       9.756       9.695       9.619       9.545       9.444    
        9.282       9.098       8.927       8.773       8.607       8.419       8.219       8.020       7.781       7.523    
        7.334       7.171       6.893       6.607       6.398       6.168       5.888       5.638       5.425       5.244    
        5.107       5.013       4.921       4.790       4.652       4.508       4.329       4.133       3.899       3.597    
        3.277       2.980       2.497       1.995       1.657       1.412       1.175      0.9110      0.5502       0.000    
   3    10.00       9.933       9.887       9.851       9.812       9.771       9.707       9.616       9.525       9.415    
        9.268       9.105       8.940       8.784       8.586       8.350       8.154       7.983       7.762       7.536    
        7.342       7.109       6.832       6.580       6.353       6.095       5.825       5.578       5.359       5.227    
        5.117       5.028       4.936       4.792       4.646       4.492       4.314       4.094       3.833       3.602    
        3.320       2.916       2.444       2.085       1.798       1.514       1.223      0.9233      0.5217       0.000    
   4    10.00       9.933       9.892       9.860       9.833       9.789       9.715       9.610       9.502       9.392    
        9.253       9.105       8.940       8.743       8.498       8.279       8.140       7.946       7.733       7.556    
        7.288       6.990       6.748       6.524       6.304       5.993       5.694       5.496       5.351       5.239    
        5.142       5.048       4.947       4.778       4.599       4.459       4.270       4.042       3.821       3.620    
        3.300       2.854       2.499       2.198       1.891       1.570       1.219      0.8687      0.4456       0.000    
   5    10.00       9.939       9.901       9.869       9.844       9.800       9.720       9.600       9.480       9.370    
        9.250       9.098       8.885       8.654       8.447       8.274       8.098       7.917       7.718       7.467    
        7.154       6.908       6.707       6.480       6.195       5.873       5.629       5.490       5.371       5.257    
        5.144       5.030       4.913       4.749       4.566       4.396       4.228       4.050       3.851       3.587    
        3.224       2.886       2.584       2.281       1.947       1.572       1.132      0.7306      0.3785       0.000    
   6    10.00       9.949       9.912       9.880       9.847       9.797       9.713       9.583       9.477       9.359    
        9.225       9.035       8.800       8.608       8.416       8.218       8.038       7.876       7.652       7.365    
        7.087       6.853       6.646       6.364       6.055       5.813       5.617       5.489       5.354       5.235    
        5.136       5.010       4.866       4.696       4.517       4.372       4.228       4.068       3.859       3.575    
        3.260       2.935       2.627       2.321       1.959       1.507       1.033      0.6861      0.3534       0.000    
   7    10.00       9.956       9.923       9.890       9.854       9.794       9.680       9.555       9.445       9.297    
        9.159       8.955       8.741       8.543       8.344       8.141       7.966       7.816       7.556       7.251    
        6.999       6.759       6.529       6.256       5.995       5.776       5.605       5.446       5.301       5.212    
        5.110       4.969       4.817       4.649       4.497       4.369       4.235       4.073       3.860       3.604    
        3.293       2.959       2.641       2.304       1.947       1.472      0.9870      0.6527      0.3090       0.000    
   8    10.00       9.963       9.934       9.897       9.855       9.758       9.619       9.499       9.360       9.220    
        9.066       8.857       8.674       8.470       8.248       8.047       7.895       7.715       7.467       7.170    
        6.877       6.658       6.466       6.184       5.911       5.716       5.522       5.349       5.253       5.165    
        5.041       4.902       4.774       4.630       4.476       4.346       4.243       4.122       3.917       3.625    
        3.285       2.990       2.694       2.304       1.907       1.377      0.9135      0.6386      0.2957       0.000    
   9    10.00       9.971       9.938       9.896       9.824       9.696       9.546       9.406       9.283       9.138    
        8.955       8.769       8.586       8.390       8.159       7.972       7.828       7.613       7.368       7.062    
        6.809       6.591       6.315       6.023       5.792       5.618       5.425       5.285       5.192       5.089    
        4.978       4.853       4.733       4.607       4.476       4.357       4.259       4.152       3.941       3.625    
        3.314       3.054       2.745       2.370       1.783       1.185      0.8696      0.5395      0.2057       0.000    
  10    10.00       9.970       9.936       9.877       9.767       9.613       9.446       9.336       9.220       9.047    
        8.887       8.703       8.520       8.306       8.091       7.922       7.727       7.505       7.244       6.997    
        6.748       6.407       6.122       5.894       5.700       5.541       5.363       5.223       5.129       5.049    
        4.933       4.799       4.692       4.577       4.463       4.383       4.288       4.163       3.921       3.609    
        3.370       3.143       2.788       2.224       1.543       1.111      0.7879      0.4812      0.2402       0.000    
  11    10.00       9.970       9.924       9.833       9.707       9.535       9.387       9.294       9.155       9.007    
        8.854       8.659       8.439       8.209       8.028       7.845       7.661       7.421       7.167       6.924    
        6.562       6.235       6.010       5.806       5.619       5.442       5.272       5.164       5.089       5.008    
        4.874       4.751       4.665       4.564       4.475       4.387       4.278       4.143       3.916       3.669    
        3.418       3.122       2.737       2.114       1.478       1.043      0.7372      0.5596      0.3093       0.000    
  12    10.00       9.968       9.902       9.784       9.620       9.448       9.330       9.237       9.115       8.982    
        8.812       8.604       8.383       8.180       7.995       7.793       7.581       7.333       7.074       6.739    
        6.381       6.135       5.913       5.705       5.497       5.323       5.206       5.128       5.030       4.921    
        4.801       4.715       4.640       4.563       4.486       4.397       4.283       4.122       3.913       3.693    
        3.423       3.102       2.574       1.872       1.332       1.025      0.8175      0.5933      0.3385       0.000    
  13    10.00       9.957       9.854       9.692       9.520       9.371       9.276       9.194       9.090       8.961    
        8.781       8.564       8.360       8.198       7.984       7.734       7.486       7.218       6.928       6.600    
        6.287       6.019       5.778       5.561       5.361       5.236       5.166       5.051       4.923       4.825    
        4.753       4.687       4.621       4.559       4.484       4.408       4.306       4.123       3.912       3.652    
        3.341       2.934       2.320       1.753       1.361       1.101      0.8587      0.5944      0.2939       0.000    
  14    10.00       9.921       9.773       9.594       9.434       9.317       9.253       9.177       9.077       8.934    
        8.735       8.549       8.382       8.212       7.967       7.672       7.404       7.101       6.780       6.438    
        6.135       5.867       5.630       5.417       5.263       5.177       5.089       4.947       4.840       4.770    
        4.719       4.656       4.602       4.545       4.478       4.419       4.297       4.109       3.889       3.562    
        3.198       2.718       2.247       1.835       1.446       1.142      0.8733      0.5947      0.2651       0.000    
  15    10.00       9.851       9.687       9.526       9.398       9.308       9.237       9.165       9.065       8.931    
        8.755       8.573       8.407       8.164       7.875       7.590       7.294       6.980       6.597       6.235    
        5.955       5.696       5.475       5.315       5.201       5.112       5.000       4.869       4.782       4.734    
        4.674       4.625       4.585       4.529       4.469       4.403       4.272       4.097       3.816       3.465    
        3.089       2.661       2.282       1.859       1.533       1.209      0.8841      0.5891      0.2419       0.000    
  16    10.00       9.826       9.648       9.501       9.390       9.307       9.234       9.168       9.070       8.931    
        8.764       8.589       8.382       8.070       7.752       7.515       7.223       6.802       6.367       6.034    
        5.748       5.535       5.355       5.220       5.094       5.014       4.890       4.785       4.722       4.666    
        4.624       4.596       4.554       4.502       4.448       4.371       4.251       4.036       3.732       3.418    
        3.099       2.690       2.266       1.895       1.589       1.249      0.8819      0.5283      0.1990       0.000    
  17    10.00       9.803       9.623       9.505       9.406       9.322       9.250       9.175       9.069       8.938    
        8.781       8.560       8.274       7.937       7.671       7.446       7.085       6.610       6.172       5.853    
        5.627       5.389       5.189       5.044       4.941       4.838       4.732       4.669       4.619       4.593    
        4.583       4.556       4.514       4.463       4.405       4.322       4.180       3.992       3.751       3.426    
        3.066       2.636       2.246       1.919       1.606       1.258      0.9006      0.5506      0.2330       0.000    
  18    10.00       9.791       9.622       9.520       9.430       9.350       9.278       9.187       9.082       8.941    
        8.752       8.489       8.172       7.886       7.625       7.293       6.874       6.442       6.056       5.743    
        5.464       5.160       4.989       4.869       4.779       4.662       4.595       4.540       4.510       4.523    
        4.523       4.501       4.459       4.403       4.343       4.256       4.124       3.975       3.767       3.469    
        3.004       2.549       2.231       1.921       1.656       1.291      0.8967      0.5407      0.2332       0.000    
  19    10.00       9.800       9.659       9.554       9.458       9.377       9.292       9.207       9.110       8.947    
        8.724       8.442       8.128       7.810       7.463       7.104       6.718       6.302       5.914       5.583    
        5.259       4.997       4.861       4.770       4.641       4.537       4.481       4.430       4.424       4.432    
        4.444       4.435       4.384       4.335       4.289       4.224       4.102       3.941       3.733       3.384    
        2.917       2.533       2.218       1.914       1.616       1.240      0.8625      0.5381      0.2539       0.000    
  20    10.00       9.811       9.691       9.598       9.506       9.409       9.308       9.217       9.119       8.952    
        8.709       8.416       8.050       7.637       7.240       6.948       6.560       6.117       5.778       5.450    
        5.162       4.946       4.782       4.641       4.477       4.404       4.368       4.344       4.351       4.353    
        4.362       4.343       4.305       4.282       4.248       4.185       4.045       3.885       3.648       3.257    
        2.856       2.552       2.189       1.842       1.517       1.145      0.8653      0.5347      0.2374       0.000    
  21    10.00       9.838       9.730       9.636       9.535       9.443       9.332       9.232       9.125       8.936    
        8.673       8.313       7.855       7.374       7.008       6.744       6.382       6.059       5.742       5.388    
        5.116       4.876       4.671       4.403       4.267       4.230       4.173       4.215       4.251       4.248    
        4.245       4.220       4.223       4.217       4.194       4.111       3.977       3.840       3.496       3.091    
        2.794       2.464       2.093       1.769       1.425       1.099      0.7834      0.4709      0.2368       0.000    
  22    10.00       9.873       9.759       9.657       9.559       9.472       9.345       9.215       9.091       8.895    
        8.573       8.119       7.605       7.156       6.843       6.570       6.295       6.063       5.714       5.367    
        5.080       4.737       4.367       4.089       3.987       3.886       3.899       4.007       4.046       4.066    
        4.084       4.084       4.118       4.145       4.124       4.042       3.915       3.660       3.269       3.012    
        2.692       2.336       2.003       1.691       1.398       1.011      0.6797      0.4511      0.2539       0.000    
  23    10.00       9.875       9.765       9.673       9.569       9.453       9.309       9.192       9.082       8.835    
        8.439       7.953       7.485       7.094       6.775       6.544       6.286       5.981       5.648       5.372    
        4.972       4.470       4.075       3.793       3.378       3.376       3.597       3.717       3.805       3.892    
        3.930       3.966       4.008       4.048       4.032       3.953       3.766       3.478       3.166       2.849    
        2.543       2.249       1.928       1.683       1.312      0.9192      0.6607      0.4335      0.2254       0.000    
  24    10.00       9.902       9.778       9.656       9.537       9.403       9.273       9.173       9.050       8.758    
        8.308       7.849       7.462       7.121       6.816       6.512       6.198       5.922       5.658       5.334    
        4.857       4.359       3.890       3.038       2.131       2.655       3.159       3.452       3.617       3.753    
        3.828       3.877       3.927       3.946       3.927       3.822       3.616       3.384       3.044       2.711    
        2.472       2.190       1.887       1.574       1.174      0.8523      0.6348      0.4057      0.1792       0.000    
  25    10.00       9.893       9.749       9.601       9.460       9.339       9.240       9.139       8.987       8.685    
        8.212       7.785       7.488       7.170       6.815       6.501       6.207       5.966       5.720       5.302    
        4.756       4.267       3.518       2.137     -0.7406       2.029       2.826       3.292       3.537       3.680    
        3.766       3.824       3.866       3.873       3.841       3.721       3.502       3.229       2.953       2.675    
        2.405       2.100       1.754       1.423       1.044      0.7815      0.6309      0.3936      0.1460       0.000    
  26    10.00       9.866       9.681       9.514       9.401       9.303       9.205       9.081       8.902       8.529    
        8.091       7.793       7.507       7.190       6.858       6.556       6.278       6.037       5.727       5.282    
        4.803       4.262       3.605       2.856       2.169       2.526       2.999       3.327       3.527       3.658    
        3.739       3.800       3.826       3.821       3.769       3.621       3.373       3.153       2.933       2.633    
        2.355       2.009       1.613       1.256      0.9476      0.7632      0.5955      0.3498      0.1489       0.000    
  27    10.00       9.837       9.640       9.484       9.389       9.261       9.132       8.975       8.736       8.384    
        8.074       7.810       7.521       7.211       6.885       6.645       6.452       6.124       5.733       5.279    
        4.873       4.479       3.948       3.452       3.060       3.114       3.294       3.453       3.580       3.673    
        3.759       3.809       3.817       3.792       3.716       3.544       3.345       3.152       2.895       2.613    
        2.325       1.908       1.454       1.119      0.9036      0.7497      0.5654      0.3691      0.1781       0.000    
  28    10.00       9.815       9.671       9.497       9.335       9.178       9.036       8.851       8.614       8.341    
        8.086       7.850       7.563       7.217       6.927       6.731       6.515       6.157       5.704       5.303    
        5.013       4.717       4.296       3.907       3.655       3.569       3.559       3.607       3.688       3.766    
        3.821       3.834       3.826       3.779       3.676       3.519       3.358       3.128       2.859       2.574    
        2.220       1.826       1.376       1.044      0.8933      0.7461      0.5823      0.3852      0.1787       0.000    
  29    10.00       9.822       9.643       9.458       9.264       9.114       8.953       8.748       8.547       8.331    
        8.104       7.870       7.591       7.299       7.048       6.816       6.529       6.132       5.718       5.405    
        5.156       4.895       4.547       4.198       3.991       3.878       3.806       3.803       3.843       3.870    
        3.874       3.869       3.842       3.774       3.652       3.514       3.362       3.146       2.847       2.485    
        2.160       1.741       1.291       1.029      0.8962      0.7512      0.5778      0.3761      0.1872       0.000    
  30    10.00       9.796       9.616       9.394       9.198       9.060       8.888       8.708       8.553       8.359    
        8.127       7.875       7.621       7.387       7.164       6.902       6.537       6.168       5.835       5.534    
        5.318       5.058       4.739       4.436       4.187       4.088       4.022       3.998       3.975       3.953    
        3.929       3.905       3.858       3.768       3.653       3.541       3.386       3.108       2.737       2.363    
        2.030       1.644       1.300       1.058      0.9170      0.7532      0.5676      0.3942      0.1935       0.000    
  31    10.00       9.770       9.562       9.350       9.173       9.029       8.867       8.708       8.554       8.366    
        8.137       7.885       7.665       7.472       7.263       6.970       6.608       6.284       6.019       5.751    
        5.518       5.223       4.908       4.652       4.399       4.239       4.175       4.113       4.067       4.020    
        3.988       3.939       3.871       3.780       3.667       3.539       3.294       2.982       2.670       2.303    
        1.986       1.599       1.263       1.086      0.9344      0.7798      0.5867      0.3946      0.1872       0.000    
  32    10.00       9.753       9.529       9.348       9.199       9.055       8.886       8.705       8.520       8.343    
        8.118       7.900       7.705       7.492       7.300       7.052       6.769       6.523       6.249       5.969    
        5.734       5.458       5.139       4.862       4.600       4.373       4.288       4.206       4.142       4.077    
        4.030       3.981       3.889       3.771       3.662       3.485       3.181       2.884       2.606       2.269    
        1.899       1.536       1.285       1.148      0.9822      0.7867      0.5823      0.3749      0.1871       0.000    
  33    10.00       9.745       9.554       9.409       9.260       9.094       8.891       8.691       8.493       8.291    
        8.105       7.922       7.730       7.527       7.313       7.120       6.913       6.703       6.478       6.203    
        5.930       5.670       5.401       5.077       4.754       4.496       4.368       4.289       4.210       4.127    
        4.068       3.999       3.900       3.783       3.623       3.377       3.064       2.809       2.538       2.143    
        1.804       1.563       1.361       1.198       1.008      0.8021      0.5516      0.3299      0.1487       0.000    
  34    10.00       9.768       9.612       9.476       9.311       9.109       8.895       8.662       8.445       8.277    
        8.109       7.942       7.769       7.560       7.371       7.185       7.005       6.837       6.622       6.343    
        6.085       5.848       5.582       5.245       4.892       4.604       4.438       4.345       4.255       4.163    
        4.083       4.010       3.909       3.764       3.570       3.268       2.959       2.723       2.400       2.048    
        1.835       1.674       1.479       1.268       1.018      0.7280      0.4462      0.2645      0.1097       0.000    
  35    10.00       9.807       9.667       9.529       9.353       9.126       8.882       8.625       8.418       8.274    
        8.162       7.994       7.802       7.581       7.380       7.248       7.116       6.944       6.721       6.455    
        6.208       5.974       5.728       5.354       4.956       4.682       4.500       4.391       4.287       4.182    
        4.100       4.012       3.893       3.709       3.411       3.094       2.885       2.635       2.301       2.085    
        1.933       1.749       1.554       1.348       1.031      0.6199      0.3432      0.2258      0.1147       0.000    
  36    10.00       9.830       9.709       9.577       9.391       9.122       8.826       8.584       8.435       8.323    
        8.172       7.982       7.807       7.613       7.435       7.303       7.178       7.027       6.851       6.606    
        6.349       6.101       5.800       5.402       5.009       4.731       4.558       4.430       4.305       4.194    
        4.104       3.992       3.807       3.536       3.264       3.039       2.838       2.576       2.303       2.157    
        2.003       1.837       1.639       1.373      0.9423      0.5231      0.3230      0.2068      0.1063       0.000    
  37    10.00       9.849       9.755       9.614       9.367       9.074       8.814       8.624       8.501       8.366    
        8.172       7.970       7.820       7.651       7.487       7.361       7.248       7.107       6.922       6.711    
        6.500       6.230       5.858       5.483       5.113       4.801       4.595       4.438       4.326       4.204    
        4.086       3.926       3.655       3.404       3.205       3.010       2.799       2.590       2.390       2.226    
        2.077       1.891       1.666       1.316      0.8662      0.5061      0.3035      0.1930      9.6786E-02   0.000    
  38    10.00       9.872       9.759       9.605       9.351       9.049       8.829       8.688       8.561       8.405    
        8.199       7.987       7.839       7.685       7.522       7.397       7.299       7.177       6.998       6.814    
        6.621       6.318       5.900       5.497       5.141       4.840       4.619       4.446       4.333       4.220    
        4.054       3.794       3.548       3.382       3.182       2.985       2.831       2.650       2.467       2.308    
        2.131       1.878       1.592       1.212      0.7644      0.4872      0.3429      0.2136      9.5872E-02   0.000    
  39    10.00       9.871       9.744       9.584       9.338       9.065       8.867       8.742       8.588       8.417    
        8.251       8.036       7.866       7.722       7.565       7.432       7.323       7.206       7.062       6.895    
        6.678       6.360       5.936       5.489       5.125       4.848       4.601       4.427       4.330       4.227    
        3.987       3.704       3.539       3.349       3.161       3.016       2.885       2.719       2.540       2.390    
        2.134       1.775       1.437       1.025      0.6847      0.5290      0.3940      0.2566      0.1320       0.000    
  40    10.00       9.861       9.750       9.587       9.362       9.134       8.941       8.778       8.596       8.439    
        8.315       8.108       7.895       7.748       7.603       7.456       7.336       7.243       7.118       6.928    
        6.684       6.325       5.897       5.480       5.104       4.819       4.550       4.410       4.325       4.188    
        3.970       3.744       3.520       3.319       3.182       3.055       2.929       2.773       2.607       2.410    
        2.065       1.672       1.305      0.9702      0.7358      0.5752      0.4405      0.3110      0.1527       0.000    
  41    10.00       9.881       9.792       9.635       9.404       9.167       8.985       8.840       8.661       8.474    
        8.328       8.143       7.948       7.809       7.641       7.465       7.359       7.262       7.108       6.907    
        6.659       6.314       5.888       5.479       5.105       4.729       4.476       4.395       4.306       4.202    
        4.023       3.752       3.524       3.360       3.222       3.107       2.967       2.817       2.645       2.340    
        1.934       1.550       1.230      0.9816      0.7786      0.6293      0.4851      0.3428      0.1806       0.000    
  42    10.00       9.911       9.814       9.664       9.467       9.243       9.037       8.888       8.729       8.526    
        8.341       8.164       8.001       7.868       7.693       7.504       7.380       7.251       7.085       6.861    
        6.583       6.209       5.840       5.437       4.953       4.614       4.471       4.408       4.330       4.215    
        4.006       3.769       3.552       3.386       3.272       3.148       3.023       2.861       2.588       2.185    
        1.829       1.540       1.260      0.9790      0.7901      0.6632      0.5247      0.3576      0.1985       0.000    
  43    10.00       9.931       9.827       9.674       9.482       9.297       9.115       8.949       8.757       8.551    
        8.380       8.204       8.043       7.920       7.759       7.551       7.389       7.243       7.017       6.733    
        6.460       6.102       5.758       5.304       4.845       4.614       4.499       4.426       4.350       4.229    
        4.031       3.812       3.602       3.436       3.326       3.203       3.041       2.810       2.413       2.054    
        1.829       1.572       1.278      0.9848      0.7841      0.6665      0.5595      0.3876      0.1816       0.000    
  44    10.00       9.924       9.837       9.679       9.505       9.373       9.193       8.971       8.756       8.585    
        8.416       8.242       8.100       7.973       7.790       7.573       7.389       7.214       6.949       6.659    
        6.332       5.972       5.609       5.152       4.804       4.629       4.532       4.466       4.382       4.232    
        4.026       3.850       3.664       3.508       3.396       3.233       3.018       2.687       2.280       2.038    
        1.834       1.565       1.270       1.002      0.7964      0.6699      0.5608      0.3803      0.1676       0.000    
  45    10.00       9.909       9.805       9.680       9.554       9.388       9.202       8.995       8.780       8.611    
        8.439       8.283       8.158       8.017       7.820       7.590       7.382       7.184       6.897       6.553    
        6.176       5.792       5.399       5.059       4.815       4.666       4.570       4.501       4.398       4.274    
        4.095       3.894       3.728       3.570       3.414       3.241       3.004       2.649       2.294       2.011    
        1.776       1.522       1.245       1.004      0.8235      0.7179      0.5545      0.3302      0.1505       0.000    
  46    10.00       9.891       9.784       9.684       9.545       9.358       9.179       9.011       8.802       8.622    
        8.471       8.325       8.202       8.036       7.828       7.624       7.403       7.144       6.833       6.459    
        6.012       5.627       5.310       5.049       4.862       4.731       4.614       4.521       4.441       4.301    
        4.113       3.940       3.778       3.600       3.444       3.275       3.009       2.600       2.224       1.972    
        1.748       1.503       1.241       1.029      0.8881      0.7521      0.5042      0.2479      0.1078       0.000    
  47    10.00       9.884       9.777       9.641       9.480       9.327       9.174       8.993       8.804       8.643    
        8.506       8.376       8.206       8.027       7.841       7.644       7.406       7.104       6.810       6.356    
        5.866       5.563       5.289       5.083       4.909       4.781       4.666       4.553       4.458       4.316    
        4.120       3.949       3.788       3.619       3.482       3.279       2.910       2.541       2.225       1.955    
        1.758       1.526       1.292       1.085      0.9114      0.6921      0.4163      0.2176      9.0608E-02   0.000    
  48    10.00       9.872       9.743       9.599       9.453       9.318       9.164       8.998       8.823       8.666    
        8.526       8.376       8.193       8.009       7.827       7.634       7.408       7.123       6.756       6.304    
        5.878       5.566       5.298       5.109       4.968       4.812       4.696       4.602       4.484       4.292    
        4.100       3.934       3.786       3.659       3.481       3.213       2.860       2.526       2.226       1.986    
        1.775       1.553       1.342       1.108      0.8477      0.5641      0.3568      0.2116      9.5605E-02   0.000    
  49    10.00       9.861       9.721       9.580       9.461       9.321       9.157       8.995       8.854       8.691    
        8.525       8.338       8.158       8.004       7.797       7.609       7.421       7.103       6.740       6.379    
        5.929       5.581       5.314       5.149       4.985       4.817       4.727       4.639       4.455       4.223    
        4.057       3.924       3.815       3.653       3.446       3.206       2.851       2.516       2.281       2.026    
        1.776       1.572       1.347       1.072      0.7522      0.5038      0.3573      0.2306      0.1183       0.000    
  50    10.00       9.866       9.727       9.583       9.453       9.316       9.170       9.011       8.863       8.718    
        8.514       8.319       8.154       7.948       7.738       7.594       7.415       7.169       6.810       6.452    
        5.995       5.556       5.324       5.156       4.985       4.849       4.741       4.624       4.407       4.186    
        4.048       3.938       3.812       3.643       3.451       3.222       2.862       2.519       2.290       2.061    
        1.823       1.565       1.312       1.018      0.7017      0.5158      0.3846      0.2607      0.1572       0.000    

 HEAD WILL BE SAVED ON UNIT   51 AT END OF TIME STEP 100, STRESS PERIOD    2

 DRAWDOWN WILL BE SAVED ON UNIT   52 AT END OF TIME STEP 100, STRESS PERIOD    2
1
  VOLUMETRIC BUDGET FOR ENTIRE MODEL AT END OF TIME STEP100 IN STRESS PERIOD   2
  ------------------------------------------------------------------------------

     CUMULATIVE VOLUMES      L**3       RATES FOR THIS TIME STEP      L**3/T
     ------------------                 ------------------------

           IN:                                      IN:
           ---                                      ---
             STORAGE =       47287.4805               STORAGE =         416.6347
       CONSTANT HEAD =       39899.7422         CONSTANT HEAD =         438.7190
               WELLS =           0.0000                 WELLS =           0.0000

            TOTAL IN =       87187.2188              TOTAL IN =         855.3538

          OUT:                                     OUT:
          ----                                     ----
             STORAGE =       1.1143E-02               STORAGE =           0.0000
       CONSTANT HEAD =       37187.2148         CONSTANT HEAD =         355.3537
               WELLS =       50000.0000                 WELLS =         500.0000

           TOTAL OUT =       87187.2266             TOTAL OUT =         855.3536

            IN - OUT =      -7.8125E-03              IN - OUT =       1.2207E-04

 PERCENT DISCREPANCY =           0.00     PERCENT DISCREPANCY =           0.00






          TIME SUMMARY AT END OF TIME STEP 100 IN STRESS PERIOD    2
                    SECONDS     MINUTES      HOURS       DAYS        YEARS
                    -----------------------------------------------------------
   TIME STEP LENGTH  86400.      1440.0      24.000      1.0000     2.73785E-03
 STRESS PERIOD TIME 8.64000E+06 1.44000E+05  2400.0      100.00     0.27379    
         TOTAL TIME 8.72640E+06 1.45440E+05  2424.0      101.00     0.27652    
1
