                                  MODFLOW-2000
      U.S. GEOLOGICAL SURVEY MODULAR FINITE-DIFFERENCE GROUND-WATER FLOW MODEL
                           VERSION 1.19.01 03/25/2010


 This model run combines GLOBAL and LIST output into this single file.

 GLOBAL LISTING FILE: tutorial2.list
                         UNIT    2

 OPENING tutorial2.dis
 FILE TYPE:DIS   UNIT   11   STATUS:OLD    
 FORMAT:FORMATTED              ACCESS:SEQUENTIAL          

 OPENING tutorial2.bas
 FILE TYPE:BAS6   UNIT   13   STATUS:OLD    
 FORMAT:FORMATTED              ACCESS:SEQUENTIAL          

 OPENING tutorial2.pcg
 FILE TYPE:PCG   UNIT   27   STATUS:OLD    
 FORMAT:FORMATTED              ACCESS:SEQUENTIAL          

 OPENING tutorial2.wel
 FILE TYPE:WEL   UNIT   20   STATUS:OLD    
 FORMAT:FORMATTED              ACCESS:SEQUENTIAL          

 OPENING tutorial2.oc
 FILE TYPE:OC   UNIT   14   STATUS:OLD    
 FORMAT:FORMATTED              ACCESS:SEQUENTIAL          

 OPENING tutorial2.lpf
 FILE TYPE:LPF   UNIT   15   STATUS:OLD    
 FORMAT:FORMATTED              ACCESS:SEQUENTIAL          

 OPENING tutorial2.hds
 FILE TYPE:DATA(BINARY)   UNIT   51   STATUS:REPLACE
 FORMAT:BINARY                 ACCESS:SEQUENTIAL          

 OPENING tutorial2.ddn
 FILE TYPE:DATA(BINARY)   UNIT   52   STATUS:REPLACE
 FORMAT:BINARY                 ACCESS:SEQUENTIAL          

 OPENING tutorial2.cbc
 FILE TYPE:DATA(BINARY)   UNIT   53   STATUS:REPLACE
 FORMAT:BINARY                 ACCESS:SEQUENTIAL          

 THE FREE FORMAT OPTION HAS BEEN SELECTED

 DISCRETIZATION INPUT DATA READ FROM UNIT   11
 # DIS package for  MODFLOW-2005, generated by Flopy.
    1 LAYERS        50 ROWS        50 COLUMNS
    2 STRESS PERIOD(S) IN SIMULATION
 MODEL TIME UNIT IS DAYS
 MODEL LENGTH UNIT IS METERS
 THE GROUND-WATER TRANSPORT PROCESS IS INACTIVE

 THE OBSERVATION PROCESS IS INACTIVE
 THE SENSITIVITY PROCESS IS INACTIVE
 THE PARAMETER-ESTIMATION PROCESS IS INACTIVE

 MODE: FORWARD

  Confining bed flag for each layer:
   0

      22600  ELEMENTS OF GX ARRAY USED OUT OF      22600
       2500  ELEMENTS OF GZ ARRAY USED OUT OF       2500
       2500  ELEMENTS OF IG ARRAY USED OUT OF       2500

                     DELR =   20.0000    

                     DELC =   20.0000    

 TOP ELEVATION OF LAYER 1 =   10.0000    

   MODEL LAYER BOTTOM EL. =  -50.0000     FOR LAYER   1


 STRESS PERIOD     LENGTH       TIME STEPS     MULTIPLIER FOR DELT    SS FLAG
 ----------------------------------------------------------------------------
        1         1.000000          1                    1.000         SS
        2         100.0000        100                    1.000         TR

 COMBINED STEADY-STATE AND TRANSIENT SIMULATION




 LPF1 -- LAYER PROPERTY FLOW PACKAGE, VERSION 1, 1/11/2000
         INPUT READ FROM UNIT   15
 # LPF package for  MODFLOW-2005, generated by Flopy.
 CELL-BY-CELL FLOWS WILL BE SAVED ON UNIT   53
 HEAD AT CELLS THAT CONVERT TO DRY= -1.00000E+30
 No named parameters

   LAYER FLAGS:
 LAYER       LAYTYP        LAYAVG         CHANI        LAYVKA        LAYWET
 ---------------------------------------------------------------------------
    1             1             0     1.000E+00             0             0

   INTERPRETATION OF LAYER FLAGS:
                        INTERBLOCK     HORIZONTAL    DATA IN
         LAYER TYPE   TRANSMISSIVITY   ANISOTROPY   ARRAY VKA   WETTABILITY
 LAYER      (LAYTYP)      (LAYAVG)       (CHANI)      (LAYVKA)      (LAYWET)
 ---------------------------------------------------------------------------
    1   CONVERTIBLE      HARMONIC     1.000E+00    VERTICAL K  NON-WETTABLE

      10000 ELEMENTS IN X ARRAY ARE USED BY LPF
          6 ELEMENTS IN IX ARRAY ARE USED BY LPF

 PCG2 -- CONJUGATE GRADIENT SOLUTION PACKAGE, VERSION 2.4, 12/29/98
 # PCG package for  MODFLOW-2005, generated by Flopy.
 MAXIMUM OF     50 CALLS OF SOLUTION ROUTINE
 MAXIMUM OF     30 INTERNAL ITERATIONS PER CALL TO SOLUTION ROUTINE
 MATRIX PRECONDITIONING TYPE :    1
       8000 ELEMENTS IN X ARRAY ARE USED BY PCG
      10500 ELEMENTS IN IX ARRAY ARE USED BY PCG
      10000 ELEMENTS IN Z ARRAY ARE USED BY PCG

      18000  ELEMENTS OF X ARRAY USED OUT OF      18000
      10000  ELEMENTS OF Z ARRAY USED OUT OF      10000
      10506  ELEMENTS OF IX ARRAY USED OUT OF      10506
          0  ELEMENTS OF XHS ARRAY USED OUT OF          1



                                    SOLUTION BY THE CONJUGATE-GRADIENT METHOD
                                   -------------------------------------------
                    MAXIMUM NUMBER OF CALLS TO PCG ROUTINE =       50
                        MAXIMUM ITERATIONS PER CALL TO PCG =       30
                               MATRIX PRECONDITIONING TYPE =        1
        RELAXATION FACTOR (ONLY USED WITH PRECOND. TYPE 1) =    0.10000E+01
 PARAMETER OF POLYNOMIAL PRECOND. = 2 (2) OR IS CALCULATED :        0
                         HEAD CHANGE CRITERION FOR CLOSURE =    0.10000E-04
                     RESIDUAL CHANGE CRITERION FOR CLOSURE =    0.10000E-04
            PCG HEAD AND RESIDUAL CHANGE PRINTOUT INTERVAL =      999
     PRINTING FROM SOLVER IS LIMITED(1) OR SUPPRESSED (>1) =        3
                                         DAMPING PARAMETER =    0.10000E+01

 WETTING CAPABILITY IS NOT ACTIVE IN ANY LAYER



              HYD. COND. ALONG ROWS FOR LAYER   1
 READING ON UNIT   15 WITH FORMAT: (50E15.6)           

      VERTICAL HYD. COND. =   1.00000     FOR LAYER   1

         SPECIFIC STORAGE =  1.000000E-04 FOR LAYER   1

           SPECIFIC YIELD =  0.100000     FOR LAYER   1
 
 # BAS6 package for  MODFLOW-2005, generated by Flopy.                           
 THE FREE FORMAT OPTION HAS BEEN SELECTED
    1 LAYERS        50 ROWS        50 COLUMNS
    2 STRESS PERIOD(S) IN SIMULATION

 BAS6 -- BASIC PACKAGE, VERSION 6, 1/11/2000 INPUT READ FROM UNIT   13
          5 ELEMENTS IN IR ARRAY ARE USED BY BAS

 WEL6 -- WELL PACKAGE, VERSION 6, 1/11/2000 INPUT READ FROM UNIT   20
 # WEL package for  MODFLOW-2005, generated by Flopy.
 No named parameters
 MAXIMUM OF      1 ACTIVE WELLS AT ONE TIME
          4 ELEMENTS IN RX ARRAY ARE USED BY WEL

          4  ELEMENTS OF RX ARRAY USED OUT OF          4
          0  ELEMENTS OF RZ ARRAY USED OUT OF          1
          5  ELEMENTS OF IR ARRAY USED OUT OF          5
1
 # BAS6 package for  MODFLOW-2005, generated by Flopy.                           
                                                                                 



                     BOUNDARY ARRAY FOR LAYER   1
 READING ON UNIT   13 WITH FORMAT: (50I10)             

 AQUIFER HEAD WILL BE SET TO -999.99     AT ALL NO-FLOW NODES (IBOUND=0).



                       INITIAL HEAD FOR LAYER   1
 READING ON UNIT   13 WITH FORMAT: (50E15.6)           
 # OC package for  MODFLOW-2005, generated by Flopy.

 OUTPUT CONTROL IS SPECIFIED ONLY AT TIME STEPS FOR WHICH OUTPUT IS DESIRED
 COMPACT CELL-BY-CELL BUDGET FILES WILL BE WRITTEN
 AUXILIARY DATA WILL BE SAVED IN CELL-BY-CELL BUDGET FILES
 HEAD PRINT FORMAT CODE IS   0    DRAWDOWN PRINT FORMAT CODE IS   0
 HEADS WILL BE SAVED ON UNIT   51    DRAWDOWNS WILL BE SAVED ON UNIT   52


     0 Well parameters
1
                            STRESS PERIOD NO.    1, LENGTH =   1.000000    
                            -----------------------------------------------

                              NUMBER OF TIME STEPS =     1

                               MULTIPLIER FOR DELT =     1.000

                            INITIAL TIME STEP SIZE =   1.000000    

 WELL NO.  LAYER   ROW   COL   STRESS RATE         
 --------------------------------------------------
      1      1     25     25       0.000    

      1 WELL
 
 SOLVING FOR HEAD 

 OUTPUT CONTROL FOR STRESS PERIOD    1   TIME STEP   1
    SAVE HEAD FOR ALL LAYERS
    SAVE DRAWDOWN FOR ALL LAYERS
    SAVE BUDGET
    PRINT HEAD FOR ALL LAYERS
    PRINT BUDGET
 UBDSV2 SAVING "   CONSTANT HEAD" ON UNIT  53 AT TIME STEP  1, STRESS PERIOD   1
 UBDSV1 SAVING "FLOW RIGHT FACE " ON UNIT  53 AT TIME STEP  1, STRESS PERIOD   1
 UBDSV1 SAVING "FLOW FRONT FACE " ON UNIT  53 AT TIME STEP  1, STRESS PERIOD   1
1
              HEAD IN LAYER   1 AT END OF TIME STEP   1 IN STRESS PERIOD    1
  ---------------------------------------------------------------------------

            1           2           3           4           5           6           7           8           9          10
           11          12          13          14          15          16          17          18          19          20
           21          22          23          24          25          26          27          28          29          30
           31          32          33          34          35          36          37          38          39          40
           41          42          43          44          45          46          47          48          49          50
 ........................................................................................................................
   1    10.00       9.960       9.905       9.850       9.804       9.748       9.694       9.637       9.560       9.498    
        9.461       9.424       9.383       9.342       9.276       9.203       9.124       9.062       9.034       9.003    
        8.963       8.929       8.893       8.847       8.783       8.671       8.536       8.405       8.253       8.102    
        7.888       7.549       7.151       6.732       6.263       5.831       5.465       5.124       4.659       4.155    
        3.725       3.300       2.713       2.157       1.768       1.377       1.050      0.8388      0.5562       0.000    
   2    10.00       9.959       9.910       9.855       9.807       9.755       9.694       9.620       9.546       9.498    
        9.465       9.432       9.400       9.349       9.273       9.198       9.126       9.065       9.035       8.999    
        8.959       8.933       8.905       8.856       8.783       8.676       8.541       8.403       8.261       8.110    
        7.878       7.529       7.111       6.638       6.165       5.748       5.421       5.087       4.616       4.143    
        3.709       3.197       2.667       2.226       1.839       1.475       1.101      0.7967      0.4253       0.000    
   3    10.00       9.956       9.908       9.858       9.809       9.750       9.675       9.604       9.557       9.513    
        9.475       9.446       9.415       9.366       9.291       9.198       9.122       9.071       9.033       8.998    
        8.964       8.936       8.908       8.848       8.770       8.663       8.534       8.431       8.280       8.101    
        7.803       7.399       6.957       6.500       6.063       5.673       5.380       5.037       4.529       4.069    
        3.707       3.239       2.749       2.325       1.922       1.554       1.112      0.6836      0.3006       0.000    
   4    10.00       9.959       9.911       9.857       9.796       9.728       9.656       9.604       9.564       9.523    
        9.489       9.465       9.430       9.378       9.309       9.207       9.123       9.076       9.035       9.002    
        8.965       8.931       8.896       8.833       8.754       8.651       8.526       8.411       8.295       8.070    
        7.688       7.199       6.729       6.381       6.051       5.670       5.292       4.859       4.431       4.093    
        3.769       3.353       2.860       2.440       2.017       1.571       1.061      0.6072      0.2828       0.000    
   5    10.00       9.956       9.906       9.843       9.781       9.718       9.655       9.610       9.569       9.533    
        9.504       9.478       9.438       9.378       9.298       9.205       9.133       9.083       9.041       8.996    
        8.953       8.919       8.875       8.809       8.736       8.619       8.496       8.397       8.279       7.998    
        7.504       6.973       6.587       6.320       6.019       5.630       5.201       4.774       4.466       4.178    
        3.883       3.450       2.935       2.567       2.135       1.551      0.9654      0.5604      0.2819       0.000    
   6    10.00       9.946       9.886       9.837       9.778       9.713       9.660       9.620       9.577       9.544    
        9.517       9.486       9.434       9.365       9.296       9.220       9.143       9.081       9.029       8.978    
        8.940       8.905       8.864       8.795       8.687       8.577       8.484       8.376       8.183       7.785    
        7.244       6.770       6.475       6.270       6.024       5.599       5.131       4.785       4.557       4.302    
        4.011       3.618       3.103       2.644       2.109       1.484      0.8655      0.4928      0.2753       0.000    
   7    10.00       9.930       9.874       9.827       9.770       9.723       9.673       9.631       9.595       9.560    
        9.525       9.480       9.418       9.351       9.289       9.227       9.143       9.061       9.006       8.964    
        8.927       8.889       8.847       8.759       8.649       8.558       8.457       8.292       7.978       7.481    
        6.969       6.599       6.412       6.248       5.939       5.524       5.210       4.901       4.649       4.467    
        4.170       3.760       3.207       2.612       1.953       1.236      0.7252      0.5003      0.2533       0.000    
   8    10.00       9.926       9.874       9.823       9.773       9.731       9.688       9.648       9.613       9.580    
        9.529       9.464       9.400       9.341       9.284       9.209       9.110       9.033       8.992       8.951    
        8.909       8.876       8.812       8.722       8.624       8.518       8.334       8.077       7.662       7.236    
        6.847       6.546       6.397       6.198       5.855       5.531       5.268       5.038       4.828       4.609    
        4.298       3.790       3.151       2.473       1.724       1.115      0.7674      0.4907      0.2260       0.000    
   9    10.00       9.930       9.871       9.821       9.785       9.750       9.709       9.669       9.629       9.592    
        9.529       9.450       9.384       9.325       9.257       9.174       9.087       9.019       8.975       8.933    
        8.895       8.845       8.759       8.677       8.582       8.441       8.183       7.803       7.398       7.090    
        6.779       6.545       6.377       6.113       5.794       5.538       5.347       5.162       4.979       4.739    
        4.350       3.818       3.138       2.380       1.690       1.154      0.7827      0.4866      0.2412       0.000    
  10    10.00       9.928       9.869       9.828       9.796       9.763       9.726       9.692       9.646       9.587    
        9.512       9.434       9.370       9.306       9.237       9.142       9.054       9.000       8.960       8.918    
        8.879       8.803       8.712       8.625       8.501       8.303       7.937       7.524       7.195       6.961    
        6.764       6.560       6.344       6.072       5.790       5.584       5.429       5.273       5.066       4.784    
        4.366       3.782       3.055       2.377       1.830       1.322      0.8379      0.5165      0.2721       0.000    
  11    10.00       9.919       9.874       9.839       9.807       9.778       9.745       9.700       9.637       9.572    
        9.498       9.421       9.361       9.279       9.185       9.104       9.040       8.989       8.950       8.904    
        8.839       8.746       8.624       8.503       8.304       8.020       7.696       7.401       7.121       6.936    
        6.767       6.513       6.262       6.057       5.857       5.691       5.530       5.325       5.077       4.748    
        4.355       3.837       3.097       2.477       1.991       1.502      0.9647      0.5113      0.2052       0.000    
  12    10.00       9.926       9.881       9.845       9.819       9.788       9.752       9.692       9.619       9.553    
        9.483       9.409       9.329       9.232       9.156       9.087       9.022       8.978       8.932       8.867    
        8.753       8.603       8.443       8.273       8.036       7.815       7.615       7.327       7.079       6.910    
        6.722       6.493       6.274       6.091       5.945       5.790       5.592       5.358       5.059       4.711    
        4.322       3.815       3.135       2.579       2.138       1.609       1.014      0.4831      0.1607       0.000    
  13    10.00       9.943       9.901       9.862       9.828       9.793       9.742       9.669       9.594       9.529    
        9.458       9.385       9.303       9.206       9.120       9.052       9.006       8.954       8.893       8.761    
        8.567       8.391       8.222       8.020       7.835       7.715       7.487       7.230       7.076       6.914    
        6.698       6.485       6.312       6.161       6.029       5.882       5.648       5.351       5.054       4.692    
        4.302       3.784       3.081       2.562       2.152       1.573      0.9440      0.4368      0.1262       0.000    
  14    10.00       9.958       9.921       9.880       9.839       9.786       9.714       9.638       9.571       9.499    
        9.429       9.363       9.269       9.164       9.089       9.033       8.967       8.897       8.768       8.551    
        8.352       8.196       7.988       7.821       7.724       7.592       7.370       7.203       7.064       6.899    
        6.695       6.525       6.398       6.248       6.100       5.937       5.671       5.340       5.019       4.649    
        4.230       3.605       2.944       2.524       2.023       1.468      0.9315      0.3992      0.1027       0.000    
  15    10.00       9.967       9.929       9.889       9.842       9.764       9.675       9.609       9.544       9.476    
        9.423       9.348       9.229       9.118       9.051       8.968       8.885       8.799       8.598       8.354    
        8.191       7.987       7.798       7.721       7.646       7.503       7.319       7.156       7.036       6.892    
        6.725       6.593       6.470       6.333       6.164       5.957       5.647       5.271       4.934       4.593    
        4.139       3.529       2.955       2.390       1.784       1.288      0.8013      0.3519      0.1056       0.000    
  16    10.00       9.976       9.939       9.892       9.820       9.725       9.649       9.595       9.537       9.468    
        9.398       9.297       9.164       9.062       8.973       8.880       8.823       8.668       8.390       8.174    
        8.012       7.820       7.734       7.672       7.572       7.412       7.261       7.152       7.051       6.918    
        6.765       6.642       6.536       6.383       6.173       5.918       5.548       5.205       4.937       4.566    
        4.049       3.392       2.735       2.109       1.595       1.105      0.6830      0.3342      0.1127       0.000    
  17    10.00       9.976       9.938       9.876       9.787       9.693       9.629       9.581       9.518       9.442    
        9.333       9.208       9.093       8.987       8.883       8.797       8.674       8.432       8.185       8.037    
        7.885       7.758       7.693       7.599       7.458       7.337       7.265       7.186       7.084       6.933    
        6.790       6.674       6.568       6.425       6.136       5.786       5.468       5.220       4.961       4.493    
        3.805       3.139       2.515       1.902       1.364      0.8941      0.5726      0.2990      0.1228       0.000    
  18    10.00       9.971       9.926       9.852       9.743       9.668       9.618       9.554       9.483       9.382    
        9.254       9.146       9.035       8.900       8.770       8.639       8.471       8.240       8.062       7.938    
        7.818       7.714       7.626       7.511       7.401       7.334       7.287       7.224       7.111       6.963    
        6.829       6.708       6.571       6.342       6.046       5.744       5.466       5.242       4.881       4.262    
        3.562       2.858       2.194       1.693       1.265      0.8383      0.4918      0.2473      0.1185       0.000    
  19    10.00       9.964       9.915       9.809       9.700       9.656       9.603       9.525       9.439       9.333    
        9.218       9.118       8.964       8.768       8.622       8.494       8.301       8.100       7.984       7.895    
        7.780       7.668       7.578       7.483       7.410       7.352       7.300       7.233       7.131       7.002    
        6.878       6.734       6.529       6.291       6.026       5.727       5.469       5.150       4.548       3.917    
        3.357       2.632       2.004       1.607       1.183      0.7562      0.4439      0.2517      0.1289       0.000    
  20    10.00       9.956       9.874       9.765       9.687       9.640       9.583       9.500       9.406       9.310    
        9.194       9.047       8.825       8.638       8.514       8.363       8.180       8.072       7.971       7.856    
        7.745       7.650       7.559       7.481       7.423       7.373       7.311       7.234       7.149       7.035    
        6.908       6.738       6.502       6.250       5.971       5.704       5.385       4.822       4.186       3.689    
        3.088       2.424       1.955       1.571       1.143      0.6707      0.3875      0.2620      0.1350       0.000    
  21    10.00       9.927       9.840       9.749       9.673       9.624       9.563       9.467       9.374       9.285    
        9.132       8.914       8.695       8.560       8.427       8.273       8.143       8.047       7.938       7.828    
        7.729       7.647       7.572       7.498       7.432       7.373       7.317       7.243       7.155       7.050    
        6.919       6.702       6.438       6.175       5.889       5.596       5.117       4.538       4.036       3.436    
        2.869       2.348       1.952       1.564      0.9621      0.5425      0.3921      0.2958      0.1418       0.000    
  22    10.00       9.908       9.804       9.724       9.664       9.605       9.520       9.433       9.351       9.230    
        9.038       8.797       8.629       8.510       8.365       8.213       8.094       8.002       7.911       7.818    
        7.734       7.663       7.593       7.516       7.440       7.379       7.319       7.234       7.148       7.049    
        6.878       6.624       6.378       6.093       5.789       5.497       5.003       4.437       3.785       3.208    
        2.799       2.383       1.907       1.259      0.7493      0.5404      0.4108      0.2734      0.1011       0.000    
  23    10.00       9.882       9.781       9.719       9.656       9.569       9.478       9.414       9.312       9.163    
        8.944       8.741       8.621       8.474       8.289       8.144       8.056       7.985       7.906       7.817    
        7.741       7.679       7.617       7.547       7.465       7.386       7.308       7.224       7.130       7.006    
        6.811       6.545       6.289       6.030       5.733       5.394       4.893       4.199       3.552       3.146    
        2.770       2.246       1.567       1.013      0.7368      0.5508      0.3939      0.2323      9.2446E-02   0.000    
  24    10.00       9.865       9.792       9.718       9.630       9.541       9.471       9.400       9.303       9.107    
        8.903       8.753       8.616       8.420       8.220       8.120       8.048       7.982       7.896       7.819    
        7.760       7.698       7.628       7.561       7.485       7.403       7.310       7.201       7.092       6.929    
        6.714       6.466       6.228       5.946       5.633       5.227       4.608       3.961       3.475       3.052    
        2.591       2.010       1.404      0.9817      0.7378      0.5364      0.3592      0.2516      0.1235       0.000    
  25    10.00       9.881       9.807       9.713       9.622       9.541       9.471       9.405       9.262       9.072    
        8.915       8.762       8.582       8.366       8.219       8.131       8.050       7.970       7.892       7.828    
        7.767       7.717       7.645       7.562       7.491       7.414       7.309       7.189       7.031       6.834    
        6.618       6.397       6.155       5.807       5.420       4.914       4.352       3.845       3.425       2.928    
        2.373       1.818       1.309      0.9725      0.7646      0.5573      0.3784      0.2635      0.1640       0.000    
  26    10.00       9.897       9.826       9.728       9.629       9.555       9.481       9.384       9.242       9.109    
        8.958       8.744       8.522       8.348       8.238       8.151       8.055       7.954       7.879       7.826    
        7.777       7.729       7.660       7.579       7.504       7.414       7.291       7.153       6.953       6.715    
        6.489       6.302       6.021       5.653       5.253       4.781       4.170       3.694       3.306       2.709    
        2.085       1.600       1.296       1.062      0.8245      0.6015      0.4124      0.2862      0.1672       0.000    
  27    10.00       9.919       9.831       9.743       9.658       9.570       9.487       9.389       9.270       9.146    
        8.951       8.707       8.511       8.364       8.269       8.162       8.035       7.933       7.875       7.829    
        7.787       7.735       7.668       7.600       7.502       7.391       7.266       7.084       6.839       6.589    
        6.398       6.223       5.933       5.555       5.108       4.494       3.940       3.557       2.980       2.361    
        1.880       1.570       1.341       1.136      0.9013      0.6565      0.4480      0.3150      0.1987       0.000    
  28    10.00       9.924       9.853       9.773       9.690       9.596       9.504       9.408       9.303       9.155    
        8.923       8.707       8.531       8.383       8.278       8.166       8.058       7.958       7.876       7.826    
        7.785       7.735       7.676       7.600       7.497       7.366       7.204       6.995       6.764       6.538    
        6.336       6.130       5.809       5.377       4.829       4.223       3.764       3.242       2.651       2.217    
        1.876       1.613       1.389       1.175      0.9470      0.7164      0.5082      0.3586      0.2049       0.000    
  29    10.00       9.930       9.860       9.797       9.716       9.631       9.540       9.440       9.323       9.122    
        8.904       8.717       8.543       8.414       8.286       8.164       8.064       7.979       7.899       7.828    
        7.775       7.725       7.673       7.603       7.490       7.329       7.119       6.934       6.714       6.452    
        6.229       5.941       5.619       5.102       4.492       3.993       3.548       3.016       2.548       2.233    
        1.957       1.669       1.415       1.210       1.004      0.7575      0.5369      0.3746      0.2077       0.000    
  30    10.00       9.939       9.881       9.826       9.752       9.668       9.585       9.470       9.309       9.123    
        8.899       8.691       8.547       8.413       8.286       8.174       8.087       8.006       7.916       7.825    
        7.760       7.711       7.658       7.593       7.417       7.207       7.026       6.857       6.621       6.363    
        6.054       5.669       5.302       4.816       4.364       3.912       3.444       2.952       2.602       2.317    
        1.990       1.701       1.481       1.247       1.002      0.7837      0.5722      0.3978      0.2235       0.000    
  31    10.00       9.952       9.904       9.851       9.795       9.726       9.630       9.484       9.297       9.099    
        8.880       8.692       8.558       8.422       8.299       8.188       8.099       8.025       7.915       7.817    
        7.750       7.688       7.619       7.478       7.273       7.113       6.972       6.804       6.555       6.230    
        5.811       5.406       5.072       4.713       4.296       3.825       3.358       2.960       2.716       2.444    
        2.081       1.764       1.513       1.276       1.049      0.8242      0.6062      0.4186      0.2167       0.000    
  32    10.00       9.958       9.923       9.877       9.824       9.757       9.653       9.481       9.308       9.119    
        8.890       8.713       8.583       8.434       8.293       8.196       8.117       8.019       7.918       7.817    
        7.723       7.645       7.521       7.338       7.194       7.098       6.956       6.731       6.412       6.029    
        5.619       5.267       4.956       4.631       4.229       3.811       3.446       3.109       2.829       2.517    
        2.182       1.869       1.605       1.334       1.086      0.8960      0.6682      0.4106      0.1833       0.000    
  33    10.00       9.964       9.937       9.897       9.842       9.770       9.631       9.461       9.322       9.147    
        8.934       8.761       8.597       8.418       8.289       8.211       8.135       8.026       7.911       7.790    
        7.684       7.574       7.410       7.266       7.175       7.080       6.842       6.541       6.240       5.914    
        5.536       5.244       4.932       4.549       4.184       3.818       3.524       3.259       2.939       2.596    
        2.307       2.012       1.722       1.442       1.182      0.9697      0.7146      0.4124      0.1792       0.000    
  34    10.00       9.970       9.949       9.915       9.842       9.734       9.604       9.486       9.340       9.165    
        8.976       8.780       8.586       8.407       8.305       8.238       8.148       8.028       7.880       7.747    
        7.624       7.474       7.322       7.212       7.117       6.954       6.688       6.428       6.148       5.786    
        5.464       5.241       4.933       4.570       4.218       3.887       3.611       3.347       3.020       2.711    
        2.454       2.171       1.854       1.575       1.311       1.068      0.7640      0.4638      0.2432       0.000    
  35    10.00       9.975       9.949       9.899       9.808       9.701       9.608       9.504       9.383       9.188    
        8.975       8.769       8.568       8.425       8.337       8.260       8.148       8.009       7.846       7.685    
        7.501       7.349       7.208       7.112       7.013       6.858       6.602       6.316       6.003       5.643    
        5.413       5.175       4.876       4.614       4.324       3.981       3.681       3.462       3.155       2.828    
        2.580       2.290       1.973       1.698       1.424       1.158      0.8756      0.5803      0.2871       0.000    
  36    10.00       9.969       9.926       9.871       9.786       9.686       9.607       9.515       9.382       9.187    
        8.948       8.725       8.584       8.479       8.384       8.274       8.133       7.977       7.779       7.519    
        7.328       7.213       7.103       7.023       6.932       6.748       6.472       6.174       5.806       5.504    
        5.319       5.131       4.881       4.633       4.393       4.089       3.792       3.561       3.288       2.932    
        2.660       2.337       2.021       1.811       1.545       1.249      0.9658      0.6572      0.3215       0.000    
  37    10.00       9.951       9.905       9.849       9.765       9.678       9.587       9.498       9.372       9.142    
        8.890       8.722       8.641       8.533       8.406       8.286       8.090       7.885       7.604       7.330    
        7.232       7.135       7.030       6.940       6.829       6.609       6.343       5.956       5.635       5.451    
        5.300       5.106       4.863       4.671       4.428       4.141       3.910       3.689       3.382       2.991    
        2.635       2.332       2.112       1.895       1.628       1.347       1.064      0.7248      0.3980       0.000    
  38    10.00       9.944       9.883       9.825       9.750       9.666       9.568       9.471       9.323       9.106    
        8.917       8.785       8.679       8.572       8.423       8.205       7.972       7.716       7.400       7.237    
        7.159       7.027       6.907       6.837       6.704       6.477       6.097       5.750       5.593       5.458    
        5.301       5.099       4.883       4.693       4.457       4.198       4.009       3.784       3.393       2.963    
        2.654       2.401       2.183       1.959       1.723       1.437       1.155      0.8382      0.4142       0.000    
  39    10.00       9.927       9.867       9.814       9.742       9.644       9.539       9.438       9.298       9.120    
        8.970       8.867       8.741       8.583       8.338       8.053       7.790       7.485       7.272       7.176    
        7.038       6.884       6.796       6.726       6.597       6.295       5.933       5.740       5.601       5.463    
        5.286       5.098       4.891       4.703       4.525       4.313       4.065       3.793       3.408       3.007    
        2.682       2.421       2.249       2.061       1.795       1.513       1.226      0.8725      0.4088       0.000    
  40    10.00       9.918       9.861       9.806       9.730       9.629       9.526       9.425       9.301       9.150    
        9.025       8.930       8.759       8.493       8.176       7.891       7.613       7.359       7.211       7.075    
        6.912       6.783       6.715       6.621       6.452       6.185       5.952       5.766       5.613       5.470    
        5.298       5.097       4.904       4.748       4.593       4.379       4.093       3.808       3.417       2.988    
        2.683       2.476       2.287       2.127       1.847       1.538       1.276      0.8750      0.4073       0.000    
  41    10.00       9.925       9.858       9.791       9.709       9.629       9.543       9.448       9.324       9.185    
        9.064       8.940       8.705       8.380       8.055       7.791       7.520       7.282       7.133       6.981    
        6.816       6.707       6.626       6.516       6.346       6.153       6.001       5.822       5.633       5.466    
        5.302       5.123       4.939       4.804       4.639       4.426       4.140       3.747       3.299       2.968    
        2.747       2.547       2.352       2.128       1.837       1.541       1.317      0.9322      0.4227       0.000    
  42    10.00       9.924       9.848       9.789       9.728       9.654       9.561       9.452       9.345       9.237    
        9.074       8.851       8.576       8.265       7.964       7.724       7.458       7.230       7.066       6.894    
        6.741       6.644       6.552       6.454       6.305       6.176       6.049       5.846       5.634       5.485    
        5.353       5.157       4.961       4.830       4.678       4.451       4.099       3.636       3.226       2.980    
        2.814       2.635       2.386       2.088       1.809       1.578       1.345      0.9833      0.4851       0.000    
  43    10.00       9.917       9.853       9.802       9.753       9.681       9.589       9.485       9.363       9.187    
        8.969       8.738       8.482       8.159       7.890       7.668       7.429       7.196       6.989       6.827    
        6.693       6.595       6.519       6.440       6.316       6.185       6.056       5.845       5.662       5.553    
        5.392       5.182       4.994       4.859       4.681       4.387       3.981       3.543       3.244       3.056    
        2.878       2.673       2.367       2.062       1.815       1.592       1.391      0.9972      0.4557       0.000    
  44    10.00       9.917       9.860       9.814       9.756       9.701       9.624       9.481       9.296       9.090    
        8.906       8.673       8.363       8.094       7.881       7.624       7.363       7.113       6.908       6.767    
        6.669       6.587       6.513       6.432       6.326       6.192       6.019       5.845       5.722       5.593    
        5.449       5.266       5.050       4.845       4.628       4.299       3.874       3.513       3.282       3.100    
        2.921       2.677       2.382       2.118       1.854       1.614       1.369      0.9003      0.4140       0.000    
  45    10.00       9.926       9.873       9.813       9.756       9.707       9.579       9.408       9.219       9.042    
        8.891       8.577       8.256       8.060       7.829       7.543       7.258       7.027       6.862       6.752    
        6.679       6.602       6.521       6.426       6.309       6.177       6.032       5.899       5.791       5.657    
        5.490       5.301       5.078       4.820       4.560       4.207       3.808       3.524       3.348       3.161    
        2.922       2.643       2.390       2.149       1.915       1.676       1.278      0.8000      0.4026       0.000    
  46    10.00       9.940       9.883       9.813       9.747       9.651       9.510       9.380       9.222       9.032    
        8.779       8.480       8.223       7.975       7.727       7.451       7.186       7.016       6.881       6.776    
        6.702       6.628       6.524       6.406       6.293       6.183       6.068       5.947       5.839       5.720    
        5.570       5.370       5.118       4.811       4.441       4.074       3.779       3.578       3.395       3.200    
        2.917       2.620       2.368       2.177       1.954       1.643       1.190      0.7641      0.3767       0.000    
  47    10.00       9.951       9.897       9.827       9.713       9.586       9.466       9.364       9.218       8.967    
        8.664       8.390       8.166       7.959       7.696       7.395       7.162       7.001       6.892       6.805    
        6.724       6.636       6.527       6.404       6.295       6.208       6.114       5.995       5.870       5.754    
        5.622       5.455       5.120       4.690       4.329       4.066       3.819       3.646       3.484       3.213    
        2.869       2.555       2.327       2.195       1.948       1.567       1.125      0.7370      0.3724       0.000    
  48    10.00       9.956       9.900       9.795       9.678       9.569       9.448       9.344       9.196       8.913    
        8.582       8.353       8.169       7.915       7.609       7.338       7.163       7.001       6.893       6.824    
        6.742       6.636       6.519       6.406       6.317       6.248       6.164       6.032       5.887       5.762    
        5.625       5.423       5.074       4.717       4.396       4.105       3.885       3.708       3.501       3.157    
        2.787       2.545       2.363       2.130       1.806       1.468       1.089      0.7423      0.3930       0.000    
  49    10.00       9.953       9.869       9.767       9.679       9.562       9.444       9.334       9.148       8.848    
        8.552       8.333       8.103       7.846       7.616       7.363       7.119       6.969       6.903       6.838    
        6.760       6.639       6.503       6.405       6.337       6.286       6.189       6.037       5.885       5.771    
        5.622       5.357       5.050       4.797       4.528       4.207       3.922       3.703       3.459       3.091    
        2.793       2.581       2.330       1.994       1.707       1.402       1.071      0.7545      0.3842       0.000    
  50    10.00       9.941       9.848       9.755       9.684       9.574       9.444       9.304       9.103       8.866    
        8.566       8.273       8.034       7.829       7.644       7.361       7.082       6.969       6.911       6.848    
        6.773       6.636       6.491       6.402       6.348       6.302       6.193       6.030       5.884       5.769    
        5.606       5.327       5.091       4.874       4.582       4.263       3.974       3.684       3.333       3.007    
        2.850       2.626       2.260       1.923       1.682       1.392       1.104      0.7369      0.3027       0.000    

 HEAD WILL BE SAVED ON UNIT   51 AT END OF TIME STEP   1, STRESS PERIOD    1

 DRAWDOWN WILL BE SAVED ON UNIT   52 AT END OF TIME STEP   1, STRESS PERIOD    1
1
  VOLUMETRIC BUDGET FOR ENTIRE MODEL AT END OF TIME STEP  1 IN STRESS PERIOD   1
  ------------------------------------------------------------------------------

     CUMULATIVE VOLUMES      L**3       RATES FOR THIS TIME STEP      L**3/T
     ------------------                 ------------------------

           IN:                                      IN:
           ---                                      ---
             STORAGE =           0.0000               STORAGE =           0.0000
       CONSTANT HEAD =         539.8925         CONSTANT HEAD =         539.8925
               WELLS =           0.0000                 WELLS =           0.0000

            TOTAL IN =         539.8925              TOTAL IN =         539.8925

          OUT:                                     OUT:
          ----                                     ----
             STORAGE =           0.0000               STORAGE =           0.0000
       CONSTANT HEAD =         539.8923         CONSTANT HEAD =         539.8923
               WELLS =           0.0000                 WELLS =           0.0000

           TOTAL OUT =         539.8923             TOTAL OUT =         539.8923

            IN - OUT =       1.2207E-04              IN - OUT =       1.2207E-04

 PERCENT DISCREPANCY =           0.00     PERCENT DISCREPANCY =           0.00






          TIME SUMMARY AT END OF TIME STEP   1 IN STRESS PERIOD    1
                    SECONDS     MINUTES      HOURS       DAYS        YEARS
                    -----------------------------------------------------------
   TIME STEP LENGTH  86400.      1440.0      24.000      1.0000     2.73785E-03
 STRESS PERIOD TIME  86400.      1440.0      24.000      1.0000     2.73785E-03
         TOTAL TIME  86400.      1440.0      24.000      1.0000     2.73785E-03
1
1
                            STRESS PERIOD NO.    2, LENGTH =   100.0000    
                            -----------------------------------------------

                              NUMBER OF TIME STEPS =   100

                               MULTIPLIER FOR DELT =     1.000

                            INITIAL TIME STEP SIZE =   1.000000    

 WELL NO.  LAYER   ROW   COL   STRESS RATE         
 --------------------------------------------------
      1      1     25     25      -500.0    

      1 WELL
 
 SOLVING FOR HEAD 

 OUTPUT CONTROL FOR STRESS PERIOD    2   TIME STEP   1
    SAVE HEAD FOR ALL LAYERS
    SAVE DRAWDOWN FOR ALL LAYERS
    SAVE BUDGET
    PRINT HEAD FOR ALL LAYERS
    PRINT BUDGET
 UBDSV1 SAVING "         STORAGE" ON UNIT  53 AT TIME STEP  1, STRESS PERIOD   2
 UBDSV2 SAVING "   CONSTANT HEAD" ON UNIT  53 AT TIME STEP  1, STRESS PERIOD   2
 UBDSV1 SAVING "FLOW RIGHT FACE " ON UNIT  53 AT TIME STEP  1, STRESS PERIOD   2
 UBDSV1 SAVING "FLOW FRONT FACE " ON UNIT  53 AT TIME STEP  1, STRESS PERIOD   2
1
              HEAD IN LAYER   1 AT END OF TIME STEP   1 IN STRESS PERIOD    2
  ---------------------------------------------------------------------------

            1           2           3           4           5           6           7           8           9          10
           11          12          13          14          15          16          17          18          19          20
           21          22          23          24          25          26          27          28          29          30
           31          32          33          34          35          36          37          38          39          40
           41          42          43          44          45          46          47          48          49          50
 ........................................................................................................................
   1    10.00       9.960       9.905       9.850       9.804       9.748       9.694       9.637       9.560       9.498    
        9.461       9.424       9.383       9.342       9.276       9.203       9.124       9.062       9.034       9.003    
        8.963       8.929       8.893       8.847       8.783       8.671       8.536       8.405       8.253       8.102    
        7.888       7.549       7.151       6.732       6.263       5.831       5.465       5.124       4.659       4.155    
        3.725       3.300       2.713       2.157       1.768       1.377       1.050      0.8388      0.5562       0.000    
   2    10.00       9.959       9.910       9.855       9.807       9.755       9.694       9.620       9.546       9.498    
        9.465       9.432       9.400       9.349       9.273       9.198       9.126       9.065       9.035       8.999    
        8.959       8.933       8.905       8.856       8.783       8.676       8.541       8.403       8.261       8.110    
        7.878       7.529       7.111       6.638       6.165       5.748       5.421       5.087       4.616       4.143    
        3.709       3.197       2.667       2.226       1.839       1.475       1.101      0.7967      0.4253       0.000    
   3    10.00       9.956       9.908       9.858       9.809       9.750       9.675       9.604       9.557       9.513    
        9.475       9.446       9.415       9.366       9.291       9.198       9.122       9.071       9.033       8.998    
        8.964       8.936       8.908       8.848       8.770       8.663       8.534       8.431       8.280       8.101    
        7.803       7.399       6.957       6.500       6.063       5.673       5.380       5.037       4.529       4.069    
        3.707       3.239       2.749       2.325       1.922       1.554       1.112      0.6836      0.3006       0.000    
   4    10.00       9.959       9.911       9.857       9.796       9.728       9.656       9.604       9.564       9.523    
        9.489       9.465       9.430       9.378       9.309       9.207       9.123       9.076       9.035       9.002    
        8.965       8.931       8.896       8.833       8.754       8.651       8.526       8.411       8.295       8.070    
        7.688       7.199       6.729       6.381       6.051       5.670       5.292       4.859       4.431       4.093    
        3.769       3.353       2.860       2.440       2.017       1.571       1.061      0.6072      0.2828       0.000    
   5    10.00       9.956       9.906       9.843       9.781       9.718       9.655       9.610       9.569       9.533    
        9.504       9.478       9.438       9.378       9.298       9.205       9.133       9.083       9.041       8.996    
        8.953       8.919       8.875       8.809       8.736       8.619       8.496       8.397       8.279       7.998    
        7.504       6.973       6.587       6.320       6.019       5.630       5.201       4.774       4.466       4.178    
        3.883       3.450       2.935       2.567       2.135       1.551      0.9654      0.5604      0.2819       0.000    
   6    10.00       9.946       9.886       9.837       9.778       9.713       9.660       9.620       9.577       9.544    
        9.517       9.486       9.434       9.365       9.296       9.220       9.143       9.081       9.029       8.978    
        8.940       8.905       8.864       8.795       8.687       8.577       8.484       8.376       8.183       7.785    
        7.244       6.770       6.475       6.270       6.024       5.599       5.131       4.785       4.557       4.302    
        4.011       3.618       3.103       2.644       2.109       1.484      0.8655      0.4928      0.2753       0.000    
   7    10.00       9.930       9.874       9.827       9.770       9.723       9.673       9.631       9.595       9.560    
        9.525       9.480       9.418       9.351       9.289       9.227       9.143       9.061       9.006       8.964    
        8.927       8.889       8.847       8.759       8.649       8.558       8.457       8.292       7.978       7.481    
        6.969       6.599       6.412       6.248       5.939       5.524       5.210       4.901       4.649       4.467    
        4.170       3.760       3.207       2.612       1.953       1.236      0.7252      0.5003      0.2533       0.000    
   8    10.00       9.926       9.874       9.823       9.773       9.731       9.688       9.648       9.613       9.580    
        9.529       9.464       9.400       9.341       9.284       9.209       9.110       9.033       8.992       8.951    
        8.909       8.876       8.812       8.722       8.624       8.518       8.334       8.077       7.662       7.236    
        6.847       6.546       6.397       6.198       5.855       5.531       5.268       5.038       4.828       4.609    
        4.298       3.790       3.151       2.473       1.724       1.115      0.7674      0.4907      0.2260       0.000    
   9    10.00       9.930       9.871       9.821       9.785       9.750       9.709       9.669       9.629       9.592    
        9.529       9.450       9.384       9.325       9.257       9.174       9.087       9.019       8.975       8.933    
        8.895       8.845       8.759       8.677       8.582       8.441       8.183       7.803       7.398       7.090    
        6.779       6.545       6.377       6.113       5.794       5.538       5.347       5.162       4.979       4.739    
        4.350       3.818       3.138       2.380       1.690       1.154      0.7827      0.4866      0.2412       0.000    
  10    10.00       9.928       9.869       9.828       9.796       9.763       9.726       9.692       9.646       9.587    
        9.512       9.434       9.370       9.306       9.237       9.142       9.054       9.000       8.960       8.918    
        8.879       8.803       8.712       8.625       8.501       8.303       7.937       7.524       7.195       6.961    
        6.764       6.560       6.344       6.072       5.790       5.584       5.429       5.273       5.066       4.784    
        4.366       3.782       3.055       2.377       1.830       1.322      0.8379      0.5165      0.2721       0.000    
  11    10.00       9.919       9.874       9.839       9.807       9.778       9.745       9.700       9.637       9.572    
        9.498       9.421       9.361       9.279       9.185       9.104       9.040       8.989       8.950       8.904    
        8.839       8.746       8.624       8.503       8.304       8.020       7.696       7.401       7.121       6.936    
        6.767       6.513       6.262       6.057       5.857       5.691       5.530       5.325       5.077       4.748    
        4.355       3.837       3.097       2.477       1.991       1.502      0.9647      0.5113      0.2052       0.000    
  12    10.00       9.926       9.881       9.845       9.819       9.788       9.752       9.692       9.619       9.553    
        9.483       9.409       9.329       9.232       9.156       9.087       9.022       8.978       8.932       8.867    
        8.753       8.603       8.443       8.272       8.036       7.815       7.615       7.327       7.079       6.910    
        6.721       6.493       6.274       6.091       5.945       5.790       5.592       5.358       5.059       4.711    
        4.322       3.815       3.135       2.579       2.138       1.609       1.014      0.4831      0.1607       0.000    
  13    10.00       9.943       9.901       9.862       9.828       9.793       9.742       9.669       9.594       9.529    
        9.458       9.385       9.303       9.206       9.120       9.052       9.006       8.954       8.893       8.761    
        8.567       8.391       8.222       8.020       7.835       7.715       7.487       7.230       7.076       6.914    
        6.698       6.485       6.312       6.161       6.029       5.882       5.648       5.351       5.054       4.692    
        4.302       3.784       3.081       2.562       2.152       1.573      0.9440      0.4368      0.1262       0.000    
  14    10.00       9.958       9.921       9.880       9.839       9.786       9.714       9.638       9.571       9.499    
        9.429       9.363       9.269       9.164       9.089       9.033       8.967       8.897       8.768       8.551    
        8.352       8.196       7.988       7.820       7.724       7.592       7.369       7.202       7.064       6.899    
        6.695       6.525       6.398       6.248       6.100       5.937       5.671       5.340       5.019       4.649    
        4.230       3.605       2.944       2.524       2.023       1.468      0.9315      0.3992      0.1027       0.000    
  15    10.00       9.967       9.929       9.889       9.842       9.764       9.675       9.609       9.544       9.476    
        9.423       9.348       9.229       9.118       9.051       8.968       8.885       8.799       8.598       8.354    
        8.190       7.986       7.797       7.720       7.646       7.502       7.318       7.155       7.035       6.891    
        6.725       6.593       6.470       6.333       6.164       5.957       5.647       5.271       4.934       4.593    
        4.139       3.529       2.955       2.390       1.784       1.288      0.8013      0.3519      0.1056       0.000    
  16    10.00       9.976       9.939       9.892       9.820       9.725       9.649       9.595       9.537       9.468    
        9.398       9.297       9.164       9.062       8.973       8.880       8.823       8.668       8.390       8.173    
        8.011       7.819       7.732       7.670       7.570       7.410       7.258       7.149       7.050       6.916    
        6.764       6.641       6.536       6.383       6.173       5.918       5.548       5.205       4.937       4.566    
        4.049       3.392       2.735       2.109       1.595       1.105      0.6830      0.3342      0.1127       0.000    
  17    10.00       9.976       9.938       9.876       9.787       9.693       9.629       9.581       9.518       9.442    
        9.333       9.208       9.093       8.987       8.883       8.797       8.674       8.432       8.184       8.036    
        7.884       7.756       7.690       7.595       7.453       7.330       7.259       7.182       7.081       6.932    
        6.789       6.674       6.568       6.425       6.136       5.786       5.468       5.220       4.961       4.493    
        3.805       3.139       2.515       1.902       1.364      0.8941      0.5726      0.2990      0.1228       0.000    
  18    10.00       9.971       9.926       9.852       9.743       9.668       9.618       9.554       9.483       9.382    
        9.254       9.146       9.035       8.900       8.770       8.639       8.471       8.240       8.061       7.936    
        7.815       7.709       7.620       7.503       7.391       7.324       7.278       7.218       7.107       6.961    
        6.828       6.707       6.571       6.342       6.046       5.744       5.466       5.242       4.881       4.262    
        3.562       2.858       2.194       1.693       1.265      0.8383      0.4918      0.2473      0.1185       0.000    
  19    10.00       9.964       9.915       9.809       9.700       9.656       9.603       9.525       9.439       9.333    
        9.218       9.118       8.964       8.768       8.622       8.494       8.301       8.099       7.982       7.891    
        7.774       7.659       7.566       7.467       7.393       7.338       7.289       7.225       7.126       6.999    
        6.877       6.733       6.529       6.291       6.026       5.727       5.469       5.150       4.548       3.917    
        3.357       2.632       2.004       1.607       1.183      0.7562      0.4439      0.2517      0.1289       0.000    
  20    10.00       9.956       9.874       9.765       9.687       9.640       9.583       9.500       9.406       9.310    
        9.194       9.047       8.825       8.638       8.514       8.362       8.179       8.071       7.968       7.850    
        7.735       7.634       7.538       7.456       7.398       7.350       7.292       7.221       7.141       7.031    
        6.906       6.737       6.502       6.250       5.971       5.704       5.385       4.822       4.186       3.689    
        3.088       2.424       1.955       1.571       1.143      0.6707      0.3875      0.2620      0.1350       0.000    
  21    10.00       9.927       9.840       9.749       9.673       9.624       9.563       9.467       9.374       9.285    
        9.132       8.914       8.695       8.560       8.426       8.273       8.141       8.045       7.934       7.819    
        7.712       7.621       7.538       7.458       7.390       7.333       7.285       7.223       7.143       7.044    
        6.916       6.701       6.437       6.175       5.889       5.596       5.117       4.538       4.036       3.436    
        2.869       2.348       1.952       1.564      0.9621      0.5425      0.3921      0.2958      0.1418       0.000    
  22    10.00       9.908       9.804       9.724       9.664       9.605       9.520       9.433       9.351       9.230    
        9.038       8.797       8.629       8.510       8.364       8.212       8.092       7.998       7.903       7.803    
        7.707       7.622       7.533       7.436       7.353       7.306       7.268       7.203       7.131       7.040    
        6.875       6.623       6.377       6.093       5.789       5.497       5.003       4.437       3.785       3.208    
        2.799       2.383       1.907       1.259      0.7493      0.5404      0.4108      0.2734      0.1011       0.000    
  23    10.00       9.882       9.781       9.719       9.656       9.569       9.478       9.414       9.312       9.163    
        8.944       8.741       8.621       8.474       8.288       8.142       8.053       7.980       7.896       7.796    
        7.703       7.615       7.509       7.372       7.240       7.224       7.219       7.177       7.106       6.996    
        6.807       6.544       6.289       6.030       5.733       5.394       4.893       4.199       3.552       3.146    
        2.770       2.246       1.567       1.013      0.7368      0.5508      0.3939      0.2323      9.2446E-02   0.000    
  24    10.00       9.865       9.792       9.718       9.630       9.541       9.471       9.400       9.303       9.107    
        8.903       8.753       8.616       8.420       8.219       8.118       8.045       7.975       7.884       7.794    
        7.717       7.615       7.454       7.196       6.808       6.995       7.133       7.132       7.063       6.918    
        6.711       6.465       6.227       5.946       5.633       5.227       4.608       3.961       3.475       3.052    
        2.591       2.010       1.404      0.9817      0.7378      0.5364      0.3592      0.2516      0.1235       0.000    
  25    10.00       9.881       9.807       9.713       9.622       9.541       9.471       9.405       9.262       9.072    
        8.915       8.762       8.582       8.366       8.218       8.129       8.047       7.964       7.880       7.805    
        7.723       7.631       7.412       6.853       5.465       6.627       7.027       7.093       7.002       6.825    
        6.615       6.396       6.155       5.807       5.420       4.914       4.352       3.845       3.425       2.928    
        2.373       1.818       1.309      0.9725      0.7646      0.5573      0.3784      0.2635      0.1640       0.000    
  26    10.00       9.897       9.826       9.728       9.629       9.555       9.481       9.384       9.242       9.109    
        8.958       8.744       8.522       8.348       8.237       8.150       8.052       7.948       7.867       7.806    
        7.740       7.658       7.494       7.165       6.694       6.983       7.129       7.093       6.937       6.711    
        6.488       6.302       6.021       5.653       5.253       4.781       4.170       3.694       3.306       2.709    
        2.085       1.600       1.296       1.062      0.8245      0.6015      0.4124      0.2862      0.1672       0.000    
  27    10.00       9.919       9.831       9.743       9.658       9.570       9.487       9.389       9.270       9.146    
        8.951       8.707       8.511       8.364       8.268       8.161       8.032       7.927       7.865       7.812    
        7.761       7.687       7.571       7.415       7.241       7.217       7.188       7.058       6.833       6.587    
        6.398       6.222       5.933       5.555       5.108       4.494       3.940       3.557       2.980       2.361    
        1.880       1.570       1.341       1.136      0.9013      0.6565      0.4480      0.3150      0.1987       0.000    
  28    10.00       9.924       9.853       9.773       9.690       9.596       9.504       9.408       9.303       9.155    
        8.923       8.707       8.531       8.383       8.278       8.165       8.056       7.954       7.868       7.813    
        7.767       7.707       7.631       7.527       7.415       7.302       7.172       6.984       6.761       6.537    
        6.335       6.130       5.809       5.377       4.829       4.223       3.764       3.242       2.651       2.217    
        1.876       1.613       1.389       1.175      0.9470      0.7164      0.5082      0.3586      0.2049       0.000    
  29    10.00       9.930       9.860       9.797       9.716       9.631       9.540       9.440       9.323       9.122    
        8.904       8.716       8.543       8.414       8.286       8.164       8.062       7.976       7.893       7.819    
        7.762       7.709       7.651       7.575       7.459       7.308       7.110       6.930       6.713       6.451    
        6.229       5.941       5.619       5.102       4.492       3.993       3.548       3.016       2.548       2.233    
        1.957       1.669       1.415       1.210       1.004      0.7575      0.5369      0.3746      0.2077       0.000    
  30    10.00       9.939       9.881       9.826       9.752       9.668       9.585       9.470       9.309       9.123    
        8.899       8.691       8.547       8.413       8.286       8.174       8.086       8.004       7.913       7.820    
        7.753       7.701       7.646       7.580       7.409       7.202       7.024       6.856       6.621       6.363    
        6.054       5.669       5.302       4.816       4.364       3.912       3.444       2.952       2.602       2.317    
        1.990       1.701       1.481       1.247       1.002      0.7837      0.5722      0.3978      0.2235       0.000    
  31    10.00       9.952       9.904       9.851       9.795       9.726       9.630       9.484       9.297       9.099    
        8.880       8.692       8.558       8.422       8.299       8.187       8.098       8.024       7.913       7.815    
        7.746       7.683       7.614       7.474       7.272       7.112       6.972       6.804       6.555       6.230    
        5.811       5.406       5.072       4.713       4.296       3.825       3.358       2.960       2.716       2.444    
        2.081       1.764       1.513       1.276       1.049      0.8242      0.6062      0.4186      0.2167       0.000    
  32    10.00       9.958       9.923       9.877       9.824       9.757       9.653       9.481       9.308       9.119    
        8.890       8.713       8.583       8.434       8.293       8.196       8.116       8.018       7.917       7.816    
        7.721       7.643       7.519       7.337       7.194       7.098       6.956       6.731       6.412       6.029    
        5.619       5.267       4.956       4.631       4.229       3.811       3.446       3.109       2.829       2.517    
        2.182       1.869       1.605       1.334       1.086      0.8960      0.6682      0.4106      0.1833       0.000    
  33    10.00       9.964       9.937       9.897       9.842       9.770       9.631       9.461       9.322       9.147    
        8.934       8.761       8.597       8.418       8.289       8.211       8.134       8.026       7.911       7.789    
        7.683       7.573       7.410       7.265       7.175       7.079       6.842       6.541       6.240       5.914    
        5.536       5.244       4.932       4.549       4.184       3.818       3.524       3.259       2.939       2.596    
        2.307       2.012       1.722       1.442       1.182      0.9697      0.7146      0.4124      0.1792       0.000    
  34    10.00       9.970       9.949       9.915       9.842       9.734       9.604       9.486       9.340       9.165    
        8.976       8.780       8.586       8.407       8.305       8.238       8.148       8.028       7.879       7.747    
        7.624       7.473       7.322       7.212       7.117       6.954       6.688       6.428       6.148       5.786    
        5.464       5.241       4.933       4.570       4.218       3.887       3.611       3.347       3.020       2.711    
        2.454       2.171       1.854       1.575       1.311       1.068      0.7640      0.4638      0.2432       0.000    
  35    10.00       9.975       9.949       9.899       9.808       9.701       9.608       9.504       9.383       9.188    
        8.975       8.769       8.568       8.425       8.337       8.260       8.148       8.009       7.846       7.685    
        7.500       7.349       7.208       7.112       7.013       6.858       6.602       6.316       6.003       5.643    
        5.413       5.175       4.876       4.614       4.324       3.981       3.681       3.462       3.155       2.828    
        2.580       2.290       1.973       1.698       1.424       1.158      0.8756      0.5803      0.2871       0.000    
  36    10.00       9.969       9.926       9.871       9.786       9.686       9.607       9.515       9.382       9.187    
        8.948       8.725       8.584       8.479       8.384       8.274       8.133       7.977       7.779       7.519    
        7.328       7.213       7.103       7.023       6.932       6.748       6.472       6.174       5.806       5.504    
        5.319       5.131       4.881       4.633       4.393       4.089       3.792       3.561       3.288       2.932    
        2.660       2.337       2.021       1.811       1.545       1.249      0.9658      0.6572      0.3215       0.000    
  37    10.00       9.951       9.905       9.849       9.765       9.678       9.587       9.498       9.372       9.142    
        8.890       8.722       8.641       8.533       8.406       8.286       8.090       7.885       7.604       7.330    
        7.232       7.135       7.030       6.940       6.829       6.609       6.343       5.956       5.635       5.451    
        5.300       5.106       4.863       4.671       4.428       4.141       3.910       3.689       3.382       2.991    
        2.635       2.332       2.112       1.895       1.628       1.347       1.064      0.7248      0.3980       0.000    
  38    10.00       9.944       9.883       9.825       9.750       9.666       9.568       9.471       9.323       9.106    
        8.917       8.785       8.679       8.572       8.423       8.205       7.972       7.716       7.400       7.237    
        7.159       7.027       6.907       6.837       6.704       6.477       6.097       5.750       5.593       5.458    
        5.301       5.099       4.883       4.693       4.457       4.198       4.009       3.784       3.393       2.963    
        2.654       2.401       2.183       1.959       1.723       1.437       1.155      0.8382      0.4142       0.000    
  39    10.00       9.927       9.867       9.814       9.742       9.644       9.539       9.438       9.298       9.120    
        8.970       8.867       8.741       8.583       8.338       8.053       7.790       7.485       7.272       7.176    
        7.038       6.884       6.796       6.726       6.597       6.295       5.933       5.740       5.601       5.463    
        5.286       5.098       4.891       4.703       4.525       4.313       4.065       3.793       3.408       3.007    
        2.682       2.421       2.249       2.061       1.795       1.513       1.226      0.8725      0.4088       0.000    
  40    10.00       9.918       9.861       9.806       9.730       9.629       9.526       9.425       9.301       9.150    
        9.025       8.930       8.759       8.493       8.176       7.891       7.613       7.359       7.211       7.075    
        6.912       6.783       6.715       6.621       6.452       6.185       5.952       5.766       5.613       5.470    
        5.298       5.097       4.904       4.748       4.593       4.379       4.093       3.808       3.417       2.988    
        2.683       2.476       2.287       2.127       1.847       1.538       1.276      0.8750      0.4073       0.000    
  41    10.00       9.925       9.858       9.791       9.709       9.629       9.543       9.448       9.324       9.185    
        9.064       8.940       8.705       8.380       8.055       7.791       7.520       7.282       7.133       6.981    
        6.816       6.707       6.626       6.516       6.346       6.153       6.001       5.822       5.633       5.466    
        5.302       5.123       4.939       4.804       4.639       4.426       4.140       3.747       3.299       2.968    
        2.747       2.547       2.352       2.128       1.837       1.541       1.317      0.9322      0.4227       0.000    
  42    10.00       9.924       9.848       9.789       9.728       9.654       9.561       9.452       9.345       9.237    
        9.074       8.851       8.576       8.265       7.964       7.724       7.458       7.230       7.066       6.894    
        6.741       6.644       6.552       6.454       6.305       6.176       6.049       5.846       5.634       5.485    
        5.353       5.157       4.961       4.830       4.678       4.451       4.099       3.636       3.226       2.980    
        2.814       2.635       2.386       2.088       1.809       1.578       1.345      0.9833      0.4851       0.000    
  43    10.00       9.917       9.853       9.802       9.753       9.681       9.589       9.485       9.363       9.187    
        8.969       8.738       8.482       8.159       7.890       7.668       7.429       7.196       6.989       6.827    
        6.693       6.595       6.519       6.440       6.316       6.185       6.056       5.845       5.662       5.553    
        5.392       5.182       4.994       4.859       4.681       4.387       3.981       3.543       3.244       3.056    
        2.878       2.673       2.367       2.062       1.815       1.592       1.391      0.9972      0.4557       0.000    
  44    10.00       9.917       9.860       9.814       9.756       9.701       9.624       9.481       9.296       9.090    
        8.906       8.673       8.363       8.094       7.881       7.624       7.363       7.113       6.908       6.767    
        6.669       6.587       6.513       6.432       6.326       6.192       6.019       5.845       5.722       5.593    
        5.449       5.266       5.050       4.845       4.628       4.299       3.874       3.513       3.282       3.100    
        2.921       2.677       2.382       2.118       1.854       1.614       1.369      0.9003      0.4140       0.000    
  45    10.00       9.926       9.873       9.813       9.756       9.707       9.579       9.408       9.219       9.042    
        8.891       8.577       8.256       8.060       7.829       7.543       7.258       7.027       6.862       6.752    
        6.679       6.602       6.521       6.426       6.309       6.177       6.032       5.899       5.791       5.657    
        5.490       5.301       5.078       4.820       4.560       4.207       3.808       3.524       3.348       3.161    
        2.922       2.643       2.390       2.149       1.915       1.676       1.278      0.8000      0.4026       0.000    
  46    10.00       9.940       9.883       9.813       9.747       9.651       9.510       9.380       9.222       9.032    
        8.779       8.480       8.223       7.975       7.727       7.451       7.186       7.016       6.881       6.776    
        6.702       6.628       6.524       6.406       6.293       6.183       6.068       5.947       5.839       5.720    
        5.570       5.370       5.118       4.811       4.441       4.074       3.779       3.578       3.395       3.200    
        2.917       2.620       2.368       2.177       1.954       1.643       1.190      0.7641      0.3767       0.000    
  47    10.00       9.951       9.897       9.827       9.713       9.586       9.466       9.364       9.218       8.967    
        8.664       8.390       8.166       7.959       7.696       7.395       7.162       7.001       6.892       6.805    
        6.724       6.636       6.527       6.404       6.295       6.208       6.114       5.995       5.870       5.754    
        5.622       5.455       5.120       4.690       4.329       4.066       3.819       3.646       3.484       3.213    
        2.869       2.555       2.327       2.195       1.948       1.567       1.125      0.7370      0.3724       0.000    
  48    10.00       9.956       9.900       9.795       9.678       9.569       9.448       9.344       9.196       8.913    
        8.582       8.353       8.169       7.915       7.609       7.338       7.163       7.001       6.893       6.824    
        6.742       6.636       6.519       6.406       6.317       6.248       6.164       6.032       5.887       5.762    
        5.625       5.423       5.074       4.717       4.396       4.105       3.885       3.708       3.501       3.157    
        2.787       2.545       2.363       2.130       1.806       1.468       1.089      0.7423      0.3930       0.000    
  49    10.00       9.953       9.869       9.767       9.679       9.562       9.444       9.334       9.148       8.848    
        8.552       8.333       8.103       7.846       7.616       7.363       7.119       6.969       6.903       6.838    
        6.760       6.639       6.503       6.405       6.337       6.286       6.189       6.037       5.885       5.771    
        5.622       5.357       5.050       4.797       4.528       4.207       3.922       3.703       3.459       3.091    
        2.793       2.581       2.330       1.994       1.707       1.402       1.071      0.7545      0.3842       0.000    
  50    10.00       9.941       9.848       9.755       9.684       9.574       9.444       9.304       9.103       8.866    
        8.566       8.273       8.034       7.829       7.644       7.361       7.082       6.969       6.911       6.848    
        6.773       6.636       6.491       6.402       6.348       6.302       6.193       6.030       5.884       5.769    
        5.606       5.327       5.091       4.874       4.582       4.263       3.974       3.684       3.333       3.007    
        2.850       2.626       2.260       1.923       1.682       1.392       1.104      0.7369      0.3027       0.000    

 HEAD WILL BE SAVED ON UNIT   51 AT END OF TIME STEP   1, STRESS PERIOD    2

 DRAWDOWN WILL BE SAVED ON UNIT   52 AT END OF TIME STEP   1, STRESS PERIOD    2
1
  VOLUMETRIC BUDGET FOR ENTIRE MODEL AT END OF TIME STEP  1 IN STRESS PERIOD   2
  ------------------------------------------------------------------------------

     CUMULATIVE VOLUMES      L**3       RATES FOR THIS TIME STEP      L**3/T
     ------------------                 ------------------------

           IN:                                      IN:
           ---                                      ---
             STORAGE =         500.0032               STORAGE =         500.0032
       CONSTANT HEAD =        1079.7849         CONSTANT HEAD =         539.8925
               WELLS =           0.0000                 WELLS =           0.0000

            TOTAL IN =        1579.7881              TOTAL IN =        1039.8956

          OUT:                                     OUT:
          ----                                     ----
             STORAGE =       3.3718E-03               STORAGE =       3.3718E-03
       CONSTANT HEAD =        1079.7847         CONSTANT HEAD =         539.8923
               WELLS =         500.0000                 WELLS =         500.0000

           TOTAL OUT =        1579.7881             TOTAL OUT =        1039.8958

            IN - OUT =           0.0000              IN - OUT =      -1.2207E-04

 PERCENT DISCREPANCY =           0.00     PERCENT DISCREPANCY =           0.00






          TIME SUMMARY AT END OF TIME STEP   1 IN STRESS PERIOD    2
                    SECONDS     MINUTES      HOURS       DAYS        YEARS
                    -----------------------------------------------------------
   TIME STEP LENGTH  86400.      1440.0      24.000      1.0000     2.73785E-03
 STRESS PERIOD TIME  86400.      1440.0      24.000      1.0000     2.73785E-03
         TOTAL TIME 1.72800E+05  2880.0      48.000      2.0000     5.47570E-03
1
 
 SOLVING FOR HEAD 

 OUTPUT CONTROL FOR STRESS PERIOD    2   TIME STEP   2
    SAVE HEAD FOR ALL LAYERS
    SAVE DRAWDOWN FOR ALL LAYERS
    SAVE BUDGET
    PRINT HEAD FOR ALL LAYERS
    PRINT BUDGET
 UBDSV1 SAVING "         STORAGE" ON UNIT  53 AT TIME STEP  2, STRESS PERIOD   2
 UBDSV2 SAVING "   CONSTANT HEAD" ON UNIT  53 AT TIME STEP  2, STRESS PERIOD   2
 UBDSV1 SAVING "FLOW RIGHT FACE " ON UNIT  53 AT TIME STEP  2, STRESS PERIOD   2
 UBDSV1 SAVING "FLOW FRONT FACE " ON UNIT  53 AT TIME STEP  2, STRESS PERIOD   2
1
              HEAD IN LAYER   1 AT END OF TIME STEP   2 IN STRESS PERIOD    2
  ---------------------------------------------------------------------------

            1           2           3           4           5           6           7           8           9          10
           11          12          13          14          15          16          17          18          19          20
           21          22          23          24          25          26          27          28          29          30
           31          32          33          34          35          36          37          38          39          40
           41          42          43          44          45          46          47          48          49          50
 ........................................................................................................................
   1    10.00       9.960       9.905       9.850       9.804       9.748       9.694       9.637       9.560       9.498    
        9.461       9.424       9.383       9.342       9.276       9.203       9.124       9.062       9.034       9.003    
        8.963       8.929       8.893       8.847       8.783       8.671       8.536       8.405       8.253       8.102    
        7.888       7.549       7.151       6.732       6.263       5.831       5.465       5.124       4.659       4.155    
        3.725       3.300       2.713       2.157       1.768       1.377       1.050      0.8388      0.5562       0.000    
   2    10.00       9.959       9.910       9.855       9.807       9.755       9.694       9.620       9.546       9.498    
        9.465       9.432       9.400       9.349       9.273       9.198       9.126       9.065       9.035       8.999    
        8.959       8.933       8.905       8.856       8.783       8.676       8.541       8.403       8.261       8.110    
        7.878       7.529       7.111       6.638       6.165       5.748       5.421       5.087       4.616       4.143    
        3.709       3.197       2.667       2.226       1.839       1.475       1.101      0.7967      0.4253       0.000    
   3    10.00       9.956       9.908       9.858       9.809       9.750       9.675       9.604       9.557       9.513    
        9.475       9.446       9.415       9.366       9.291       9.198       9.122       9.071       9.033       8.998    
        8.964       8.936       8.908       8.848       8.770       8.662       8.534       8.431       8.280       8.101    
        7.803       7.399       6.957       6.500       6.063       5.673       5.380       5.037       4.529       4.069    
        3.707       3.239       2.749       2.325       1.922       1.554       1.112      0.6836      0.3006       0.000    
   4    10.00       9.959       9.911       9.857       9.796       9.728       9.656       9.604       9.564       9.523    
        9.489       9.465       9.430       9.378       9.309       9.207       9.123       9.076       9.035       9.002    
        8.965       8.931       8.896       8.833       8.754       8.651       8.526       8.411       8.295       8.070    
        7.688       7.199       6.729       6.381       6.051       5.670       5.292       4.859       4.431       4.093    
        3.769       3.353       2.860       2.440       2.017       1.571       1.061      0.6072      0.2828       0.000    
   5    10.00       9.956       9.906       9.843       9.781       9.718       9.655       9.610       9.569       9.533    
        9.504       9.478       9.438       9.378       9.298       9.205       9.133       9.083       9.041       8.996    
        8.953       8.919       8.875       8.809       8.736       8.619       8.496       8.397       8.279       7.998    
        7.504       6.973       6.587       6.320       6.019       5.630       5.201       4.774       4.466       4.178    
        3.883       3.450       2.935       2.567       2.135       1.551      0.9654      0.5604      0.2819       0.000    
   6    10.00       9.946       9.886       9.837       9.778       9.713       9.660       9.620       9.577       9.544    
        9.517       9.486       9.434       9.365       9.296       9.220       9.142       9.081       9.029       8.978    
        8.940       8.905       8.864       8.795       8.687       8.577       8.484       8.376       8.183       7.785    
        7.244       6.770       6.475       6.270       6.024       5.599       5.131       4.785       4.557       4.302    
        4.011       3.618       3.103       2.644       2.109       1.484      0.8655      0.4928      0.2753       0.000    
   7    10.00       9.930       9.874       9.827       9.770       9.723       9.673       9.631       9.595       9.560    
        9.525       9.480       9.418       9.351       9.289       9.227       9.143       9.061       9.006       8.964    
        8.927       8.889       8.847       8.759       8.649       8.558       8.457       8.292       7.978       7.481    
        6.969       6.599       6.412       6.248       5.939       5.524       5.210       4.901       4.649       4.467    
        4.170       3.760       3.207       2.612       1.953       1.236      0.7252      0.5003      0.2533       0.000    
   8    10.00       9.926       9.874       9.823       9.773       9.731       9.688       9.648       9.613       9.580    
        9.529       9.464       9.400       9.341       9.284       9.209       9.110       9.033       8.992       8.951    
        8.909       8.876       8.812       8.722       8.624       8.518       8.334       8.077       7.662       7.236    
        6.847       6.546       6.397       6.198       5.855       5.531       5.268       5.038       4.828       4.609    
        4.298       3.790       3.151       2.473       1.724       1.115      0.7674      0.4907      0.2260       0.000    
   9    10.00       9.930       9.871       9.821       9.785       9.750       9.709       9.669       9.629       9.592    
        9.529       9.450       9.384       9.325       9.257       9.174       9.087       9.019       8.975       8.933    
        8.895       8.845       8.759       8.677       8.582       8.441       8.183       7.803       7.398       7.090    
        6.779       6.545       6.377       6.113       5.794       5.538       5.347       5.162       4.979       4.739    
        4.350       3.818       3.138       2.380       1.690       1.154      0.7827      0.4866      0.2412       0.000    
  10    10.00       9.928       9.869       9.828       9.796       9.763       9.726       9.692       9.646       9.587    
        9.512       9.434       9.370       9.306       9.237       9.142       9.054       9.000       8.960       8.918    
        8.879       8.803       8.711       8.625       8.501       8.303       7.937       7.524       7.195       6.960    
        6.764       6.560       6.344       6.072       5.790       5.584       5.429       5.273       5.066       4.784    
        4.366       3.782       3.055       2.377       1.830       1.322      0.8379      0.5165      0.2721       0.000    
  11    10.00       9.919       9.874       9.839       9.807       9.778       9.745       9.700       9.637       9.572    
        9.498       9.421       9.361       9.279       9.185       9.104       9.040       8.989       8.950       8.904    
        8.839       8.746       8.624       8.503       8.304       8.020       7.696       7.401       7.121       6.936    
        6.767       6.513       6.262       6.057       5.857       5.691       5.530       5.325       5.077       4.748    
        4.355       3.837       3.097       2.477       1.991       1.502      0.9647      0.5113      0.2052       0.000    
  12    10.00       9.926       9.881       9.845       9.819       9.788       9.752       9.692       9.619       9.553    
        9.483       9.409       9.329       9.232       9.156       9.087       9.022       8.978       8.931       8.867    
        8.753       8.603       8.443       8.272       8.036       7.814       7.615       7.327       7.078       6.910    
        6.721       6.493       6.274       6.091       5.945       5.790       5.592       5.358       5.059       4.711    
        4.322       3.815       3.135       2.579       2.138       1.609       1.014      0.4831      0.1607       0.000    
  13    10.00       9.943       9.901       9.862       9.828       9.793       9.742       9.669       9.594       9.529    
        9.458       9.385       9.303       9.206       9.120       9.052       9.006       8.954       8.893       8.761    
        8.567       8.391       8.222       8.019       7.834       7.714       7.486       7.229       7.075       6.913    
        6.698       6.484       6.312       6.161       6.029       5.882       5.648       5.351       5.054       4.692    
        4.302       3.784       3.081       2.562       2.152       1.573      0.9440      0.4368      0.1262       0.000    
  14    10.00       9.958       9.921       9.880       9.839       9.786       9.714       9.638       9.571       9.499    
        9.429       9.363       9.269       9.164       9.089       9.033       8.967       8.897       8.768       8.550    
        8.351       8.195       7.987       7.819       7.722       7.590       7.368       7.200       7.062       6.898    
        6.694       6.525       6.397       6.248       6.100       5.937       5.671       5.340       5.019       4.649    
        4.230       3.605       2.944       2.524       2.023       1.468      0.9315      0.3992      0.1027       0.000    
  15    10.00       9.967       9.929       9.889       9.842       9.764       9.675       9.609       9.544       9.476    
        9.423       9.348       9.229       9.118       9.051       8.968       8.885       8.799       8.598       8.353    
        8.190       7.985       7.795       7.717       7.643       7.498       7.314       7.151       7.031       6.889    
        6.723       6.592       6.470       6.332       6.164       5.957       5.647       5.271       4.934       4.593    
        4.139       3.529       2.955       2.390       1.784       1.288      0.8013      0.3519      0.1056       0.000    
  16    10.00       9.976       9.939       9.892       9.820       9.725       9.649       9.595       9.537       9.468    
        9.398       9.297       9.164       9.062       8.973       8.880       8.823       8.668       8.390       8.172    
        8.009       7.815       7.728       7.665       7.564       7.402       7.250       7.141       7.044       6.913    
        6.762       6.640       6.535       6.382       6.173       5.917       5.547       5.205       4.937       4.566    
        4.049       3.392       2.735       2.109       1.595       1.105      0.6830      0.3342      0.1127       0.000    
  17    10.00       9.976       9.938       9.876       9.787       9.693       9.629       9.581       9.518       9.442    
        9.333       9.208       9.093       8.987       8.883       8.797       8.674       8.432       8.183       8.034    
        7.880       7.749       7.682       7.586       7.441       7.315       7.245       7.171       7.073       6.927    
        6.786       6.672       6.567       6.425       6.135       5.786       5.468       5.220       4.961       4.493    
        3.805       3.139       2.515       1.902       1.364      0.8941      0.5726      0.2990      0.1228       0.000    
  18    10.00       9.971       9.926       9.852       9.743       9.668       9.618       9.554       9.483       9.382    
        9.254       9.146       9.035       8.900       8.770       8.639       8.471       8.238       8.057       7.930    
        7.806       7.697       7.604       7.483       7.368       7.302       7.259       7.202       7.097       6.955    
        6.825       6.705       6.570       6.342       6.046       5.744       5.466       5.242       4.881       4.262    
        3.562       2.858       2.194       1.693       1.265      0.8383      0.4918      0.2473      0.1185       0.000    
  19    10.00       9.964       9.915       9.809       9.700       9.656       9.603       9.525       9.439       9.333    
        9.218       9.118       8.964       8.768       8.622       8.493       8.299       8.095       7.975       7.882    
        7.760       7.637       7.538       7.435       7.360       7.308       7.264       7.204       7.111       6.990    
        6.872       6.731       6.528       6.290       6.026       5.727       5.469       5.150       4.548       3.917    
        3.357       2.632       2.004       1.607       1.183      0.7562      0.4439      0.2517      0.1289       0.000    
  20    10.00       9.956       9.874       9.765       9.687       9.640       9.583       9.500       9.406       9.310    
        9.194       9.047       8.825       8.638       8.513       8.361       8.176       8.066       7.960       7.836    
        7.711       7.601       7.497       7.412       7.354       7.309       7.256       7.194       7.121       7.019    
        6.899       6.735       6.501       6.249       5.971       5.704       5.385       4.822       4.186       3.689    
        3.088       2.424       1.955       1.571       1.143      0.6707      0.3875      0.2620      0.1350       0.000    
  21    10.00       9.927       9.840       9.749       9.673       9.624       9.563       9.467       9.374       9.285    
        9.132       8.914       8.695       8.559       8.425       8.270       8.137       8.038       7.921       7.796    
        7.677       7.574       7.481       7.395       7.325       7.271       7.231       7.183       7.116       7.027    
        6.908       6.699       6.437       6.175       5.889       5.596       5.117       4.538       4.036       3.436    
        2.869       2.348       1.952       1.564      0.9621      0.5425      0.3921      0.2958      0.1418       0.000    
  22    10.00       9.908       9.804       9.724       9.664       9.605       9.520       9.433       9.351       9.230    
        9.038       8.796       8.628       8.509       8.363       8.209       8.086       7.987       7.885       7.772    
        7.658       7.554       7.445       7.331       7.246       7.209       7.190       7.148       7.095       7.018    
        6.866       6.620       6.376       6.093       5.789       5.497       5.003       4.437       3.785       3.208    
        2.799       2.383       1.907       1.259      0.7493      0.5404      0.4108      0.2734      0.1011       0.000    
  23    10.00       9.882       9.781       9.719       9.656       9.569       9.478       9.414       9.312       9.163    
        8.943       8.741       8.620       8.473       8.286       8.137       8.044       7.966       7.873       7.756    
        7.640       7.524       7.380       7.193       7.034       7.049       7.101       7.100       7.060       6.971    
        6.797       6.541       6.288       6.030       5.733       5.394       4.893       4.199       3.552       3.146    
        2.770       2.246       1.567       1.013      0.7368      0.5508      0.3939      0.2323      9.2446E-02   0.000    
  24    10.00       9.865       9.792       9.718       9.630       9.541       9.471       9.400       9.303       9.107    
        8.903       8.753       8.616       8.419       8.216       8.112       8.036       7.960       7.857       7.749    
        7.649       7.508       7.275       6.910       6.407       6.666       6.933       7.028       7.008       6.893    
        6.702       6.461       6.226       5.946       5.633       5.227       4.608       3.961       3.475       3.052    
        2.591       2.010       1.404      0.9817      0.7378      0.5364      0.3592      0.2516      0.1235       0.000    
  25    10.00       9.881       9.807       9.713       9.622       9.541       9.471       9.405       9.262       9.072    
        8.915       8.762       8.581       8.364       8.215       8.123       8.038       7.948       7.853       7.763    
        7.653       7.522       7.196       6.440       4.838       6.158       6.756       6.961       6.947       6.804    
        6.608       6.394       6.154       5.806       5.420       4.914       4.352       3.845       3.425       2.928    
        2.373       1.818       1.309      0.9725      0.7646      0.5573      0.3784      0.2635      0.1640       0.000    
  26    10.00       9.897       9.826       9.728       9.629       9.555       9.481       9.384       9.242       9.109    
        8.958       8.744       8.522       8.347       8.235       8.145       8.044       7.933       7.842       7.767    
        7.679       7.561       7.311       6.832       6.213       6.606       6.921       6.992       6.901       6.699    
        6.484       6.300       6.021       5.653       5.253       4.781       4.170       3.694       3.306       2.709    
        2.085       1.600       1.296       1.062      0.8245      0.6015      0.4124      0.2862      0.1672       0.000    
  27    10.00       9.919       9.831       9.743       9.658       9.570       9.487       9.389       9.270       9.146    
        8.951       8.707       8.510       8.363       8.267       8.158       8.025       7.911       7.841       7.779    
        7.713       7.613       7.443       7.213       6.980       7.001       7.060       7.002       6.816       6.582    
        6.395       6.221       5.932       5.555       5.108       4.494       3.940       3.557       2.980       2.361    
        1.880       1.570       1.341       1.136      0.9013      0.6565      0.4480      0.3150      0.1987       0.000    
  28    10.00       9.924       9.853       9.773       9.690       9.596       9.504       9.408       9.303       9.155    
        8.923       8.707       8.531       8.383       8.277       8.163       8.051       7.943       7.848       7.785    
        7.731       7.658       7.557       7.419       7.294       7.195       7.109       6.959       6.752       6.534    
        6.334       6.130       5.809       5.377       4.829       4.223       3.764       3.242       2.651       2.217    
        1.876       1.613       1.389       1.175      0.9470      0.7164      0.5082      0.3586      0.2049       0.000    
  29    10.00       9.930       9.860       9.797       9.716       9.631       9.540       9.440       9.323       9.122    
        8.904       8.716       8.543       8.413       8.285       8.161       8.058       7.968       7.879       7.798    
        7.735       7.675       7.607       7.523       7.400       7.262       7.087       6.919       6.709       6.450    
        6.228       5.940       5.619       5.102       4.492       3.993       3.548       3.016       2.548       2.233    
        1.957       1.669       1.415       1.210       1.004      0.7575      0.5369      0.3746      0.2077       0.000    
  30    10.00       9.939       9.881       9.826       9.752       9.668       9.585       9.470       9.309       9.123    
        8.899       8.691       8.547       8.412       8.285       8.172       8.083       7.999       7.904       7.807    
        7.734       7.679       7.620       7.551       7.390       7.190       7.017       6.852       6.620       6.362    
        6.054       5.669       5.302       4.816       4.364       3.912       3.444       2.952       2.602       2.317    
        1.990       1.701       1.481       1.247       1.002      0.7837      0.5722      0.3978      0.2235       0.000    
  31    10.00       9.952       9.904       9.851       9.795       9.726       9.630       9.484       9.297       9.099    
        8.880       8.692       8.558       8.421       8.298       8.186       8.096       8.021       7.908       7.807    
        7.735       7.670       7.600       7.464       7.267       7.109       6.969       6.803       6.554       6.230    
        5.811       5.406       5.072       4.713       4.296       3.825       3.358       2.960       2.716       2.444    
        2.081       1.764       1.513       1.276       1.049      0.8242      0.6062      0.4186      0.2167       0.000    
  32    10.00       9.958       9.923       9.877       9.824       9.757       9.653       9.481       9.308       9.119    
        8.890       8.713       8.583       8.434       8.293       8.195       8.115       8.016       7.914       7.811    
        7.715       7.636       7.514       7.334       7.192       7.097       6.955       6.730       6.412       6.028    
        5.619       5.267       4.956       4.631       4.229       3.811       3.446       3.109       2.829       2.517    
        2.182       1.869       1.605       1.334       1.086      0.8960      0.6682      0.4106      0.1833       0.000    
  33    10.00       9.964       9.937       9.897       9.842       9.770       9.631       9.461       9.322       9.147    
        8.934       8.761       8.597       8.418       8.289       8.211       8.134       8.025       7.909       7.787    
        7.680       7.570       7.407       7.264       7.174       7.079       6.842       6.541       6.240       5.914    
        5.536       5.244       4.932       4.549       4.184       3.818       3.524       3.259       2.939       2.596    
        2.307       2.012       1.722       1.442       1.182      0.9697      0.7146      0.4124      0.1792       0.000    
  34    10.00       9.970       9.949       9.915       9.842       9.734       9.604       9.486       9.340       9.165    
        8.976       8.780       8.586       8.407       8.304       8.238       8.147       8.027       7.879       7.746    
        7.623       7.472       7.321       7.211       7.117       6.954       6.688       6.428       6.148       5.786    
        5.464       5.241       4.933       4.570       4.218       3.887       3.611       3.347       3.020       2.711    
        2.454       2.171       1.854       1.575       1.311       1.068      0.7640      0.4638      0.2432       0.000    
  35    10.00       9.975       9.949       9.899       9.808       9.701       9.608       9.504       9.383       9.188    
        8.975       8.769       8.568       8.425       8.337       8.260       8.147       8.009       7.846       7.684    
        7.500       7.349       7.207       7.111       7.012       6.858       6.602       6.316       6.003       5.643    
        5.413       5.175       4.876       4.614       4.324       3.981       3.681       3.462       3.155       2.828    
        2.580       2.290       1.973       1.698       1.424       1.158      0.8756      0.5803      0.2871       0.000    
  36    10.00       9.969       9.926       9.871       9.786       9.686       9.607       9.515       9.382       9.187    
        8.948       8.725       8.584       8.479       8.384       8.274       8.133       7.977       7.779       7.519    
        7.328       7.212       7.102       7.023       6.932       6.748       6.472       6.174       5.806       5.504    
        5.319       5.131       4.881       4.633       4.393       4.089       3.792       3.561       3.288       2.932    
        2.660       2.337       2.021       1.811       1.545       1.249      0.9658      0.6572      0.3215       0.000    
  37    10.00       9.951       9.905       9.849       9.765       9.678       9.587       9.498       9.372       9.142    
        8.890       8.722       8.641       8.533       8.406       8.286       8.090       7.885       7.604       7.330    
        7.232       7.135       7.030       6.940       6.829       6.609       6.343       5.956       5.635       5.451    
        5.300       5.106       4.863       4.671       4.428       4.141       3.910       3.689       3.382       2.991    
        2.635       2.332       2.112       1.895       1.628       1.347       1.064      0.7248      0.3980       0.000    
  38    10.00       9.944       9.883       9.825       9.750       9.666       9.568       9.471       9.323       9.106    
        8.917       8.785       8.679       8.572       8.423       8.205       7.972       7.716       7.400       7.237    
        7.158       7.027       6.907       6.837       6.704       6.477       6.097       5.750       5.593       5.458    
        5.301       5.099       4.883       4.693       4.457       4.198       4.009       3.784       3.393       2.963    
        2.654       2.401       2.183       1.959       1.723       1.437       1.155      0.8382      0.4142       0.000    
  39    10.00       9.927       9.867       9.814       9.742       9.644       9.539       9.438       9.298       9.120    
        8.970       8.867       8.741       8.583       8.338       8.053       7.790       7.485       7.272       7.176    
        7.038       6.884       6.796       6.726       6.597       6.295       5.933       5.740       5.601       5.463    
        5.286       5.098       4.891       4.703       4.525       4.313       4.065       3.793       3.408       3.007    
        2.682       2.421       2.249       2.061       1.795       1.513       1.226      0.8725      0.4088       0.000    
  40    10.00       9.918       9.861       9.806       9.730       9.629       9.526       9.425       9.301       9.150    
        9.025       8.930       8.759       8.493       8.176       7.891       7.613       7.359       7.211       7.075    
        6.912       6.783       6.715       6.621       6.452       6.185       5.952       5.766       5.613       5.470    
        5.298       5.097       4.904       4.748       4.593       4.379       4.093       3.808       3.417       2.988    
        2.683       2.476       2.287       2.127       1.847       1.538       1.276      0.8750      0.4073       0.000    
  41    10.00       9.925       9.858       9.791       9.709       9.629       9.543       9.448       9.324       9.185    
        9.064       8.940       8.705       8.380       8.055       7.791       7.520       7.282       7.133       6.981    
        6.816       6.707       6.626       6.516       6.346       6.153       6.001       5.822       5.633       5.466    
        5.302       5.123       4.939       4.804       4.639       4.426       4.140       3.747       3.299       2.968    
        2.747       2.547       2.352       2.128       1.837       1.541       1.317      0.9322      0.4227       0.000    
  42    10.00       9.924       9.848       9.789       9.728       9.654       9.561       9.452       9.345       9.237    
        9.074       8.851       8.576       8.265       7.964       7.724       7.458       7.230       7.066       6.894    
        6.741       6.644       6.552       6.454       6.305       6.176       6.049       5.846       5.634       5.485    
        5.353       5.157       4.961       4.830       4.678       4.451       4.099       3.636       3.226       2.980    
        2.814       2.635       2.386       2.088       1.809       1.578       1.345      0.9833      0.4851       0.000    
  43    10.00       9.917       9.853       9.802       9.753       9.681       9.589       9.485       9.363       9.187    
        8.969       8.738       8.482       8.159       7.890       7.668       7.429       7.196       6.989       6.827    
        6.693       6.595       6.519       6.440       6.316       6.185       6.056       5.845       5.662       5.553    
        5.392       5.182       4.994       4.859       4.681       4.387       3.981       3.543       3.244       3.056    
        2.878       2.673       2.367       2.062       1.815       1.592       1.391      0.9972      0.4557       0.000    
  44    10.00       9.917       9.860       9.814       9.756       9.701       9.624       9.481       9.296       9.090    
        8.906       8.673       8.363       8.094       7.881       7.624       7.363       7.113       6.908       6.767    
        6.669       6.587       6.513       6.432       6.326       6.192       6.019       5.845       5.722       5.593    
        5.449       5.266       5.050       4.845       4.628       4.299       3.874       3.513       3.282       3.100    
        2.921       2.677       2.382       2.118       1.854       1.614       1.369      0.9003      0.4140       0.000    
  45    10.00       9.926       9.873       9.813       9.756       9.707       9.579       9.408       9.219       9.042    
        8.891       8.577       8.256       8.060       7.829       7.543       7.258       7.027       6.862       6.752    
        6.679       6.602       6.521       6.426       6.309       6.177       6.032       5.899       5.791       5.657    
        5.490       5.301       5.078       4.820       4.560       4.207       3.808       3.524       3.348       3.161    
        2.922       2.643       2.390       2.149       1.915       1.676       1.278      0.8000      0.4026       0.000    
  46    10.00       9.940       9.883       9.813       9.747       9.651       9.510       9.380       9.222       9.032    
        8.779       8.480       8.223       7.975       7.727       7.451       7.186       7.016       6.881       6.776    
        6.702       6.628       6.524       6.406       6.293       6.183       6.068       5.947       5.839       5.720    
        5.570       5.370       5.118       4.811       4.441       4.074       3.779       3.578       3.395       3.200    
        2.917       2.620       2.368       2.177       1.954       1.643       1.190      0.7641      0.3767       0.000    
  47    10.00       9.951       9.897       9.827       9.713       9.586       9.466       9.364       9.218       8.967    
        8.664       8.390       8.166       7.959       7.696       7.395       7.162       7.001       6.892       6.805    
        6.724       6.636       6.527       6.404       6.295       6.208       6.114       5.995       5.870       5.754    
        5.622       5.455       5.120       4.690       4.329       4.066       3.819       3.646       3.484       3.213    
        2.869       2.555       2.327       2.195       1.948       1.567       1.125      0.7370      0.3724       0.000    
  48    10.00       9.956       9.900       9.795       9.678       9.569       9.448       9.344       9.196       8.913    
        8.582       8.353       8.169       7.915       7.609       7.338       7.163       7.001       6.893       6.824    
        6.742       6.636       6.519       6.406       6.317       6.248       6.164       6.032       5.887       5.762    
        5.625       5.423       5.074       4.717       4.396       4.105       3.885       3.708       3.501       3.157    
        2.787       2.545       2.363       2.130       1.806       1.468       1.089      0.7423      0.3930       0.000    
  49    10.00       9.953       9.869       9.767       9.679       9.562       9.444       9.334       9.148       8.848    
        8.552       8.333       8.103       7.846       7.616       7.363       7.119       6.969       6.903       6.838    
        6.760       6.639       6.503       6.405       6.337       6.286       6.189       6.037       5.885       5.771    
        5.622       5.357       5.050       4.797       4.528       4.207       3.922       3.703       3.459       3.091    
        2.793       2.581       2.330       1.994       1.707       1.402       1.071      0.7545      0.3842       0.000    
  50    10.00       9.941       9.848       9.755       9.684       9.574       9.444       9.304       9.103       8.866    
        8.566       8.273       8.034       7.829       7.644       7.361       7.082       6.969       6.911       6.848    
        6.773       6.636       6.491       6.402       6.348       6.302       6.193       6.030       5.884       5.769    
        5.606       5.327       5.091       4.874       4.582       4.263       3.974       3.684       3.333       3.007    
        2.850       2.626       2.260       1.923       1.682       1.392       1.104      0.7369      0.3027       0.000    

 HEAD WILL BE SAVED ON UNIT   51 AT END OF TIME STEP   2, STRESS PERIOD    2

 DRAWDOWN WILL BE SAVED ON UNIT   52 AT END OF TIME STEP   2, STRESS PERIOD    2
1
  VOLUMETRIC BUDGET FOR ENTIRE MODEL AT END OF TIME STEP  2 IN STRESS PERIOD   2
  ------------------------------------------------------------------------------

     CUMULATIVE VOLUMES      L**3       RATES FOR THIS TIME STEP      L**3/T
     ------------------                 ------------------------

           IN:                                      IN:
           ---                                      ---
             STORAGE =        1000.0056               STORAGE =         500.0024
       CONSTANT HEAD =        1619.6774         CONSTANT HEAD =         539.8925
               WELLS =           0.0000                 WELLS =           0.0000

            TOTAL IN =        2619.6829              TOTAL IN =        1039.8949

          OUT:                                     OUT:
          ----                                     ----
             STORAGE =       5.6442E-03               STORAGE =       2.2724E-03
       CONSTANT HEAD =        1619.6770         CONSTANT HEAD =         539.8923
               WELLS =        1000.0000                 WELLS =         500.0000

           TOTAL OUT =        2619.6826             TOTAL OUT =        1039.8947

            IN - OUT =       2.4414E-04              IN - OUT =       2.4414E-04

 PERCENT DISCREPANCY =           0.00     PERCENT DISCREPANCY =           0.00






          TIME SUMMARY AT END OF TIME STEP   2 IN STRESS PERIOD    2
                    SECONDS     MINUTES      HOURS       DAYS        YEARS
                    -----------------------------------------------------------
   TIME STEP LENGTH  86400.      1440.0      24.000      1.0000     2.73785E-03
 STRESS PERIOD TIME 1.72800E+05  2880.0      48.000      2.0000     5.47570E-03
         TOTAL TIME 2.59200E+05  4320.0      72.000      3.0000     8.21355E-03
1
 
 SOLVING FOR HEAD 

 OUTPUT CONTROL FOR STRESS PERIOD    2   TIME STEP   3
    SAVE HEAD FOR ALL LAYERS
    SAVE DRAWDOWN FOR ALL LAYERS
    SAVE BUDGET
    PRINT HEAD FOR ALL LAYERS
    PRINT BUDGET
 UBDSV1 SAVING "         STORAGE" ON UNIT  53 AT TIME STEP  3, STRESS PERIOD   2
 UBDSV2 SAVING "   CONSTANT HEAD" ON UNIT  53 AT TIME STEP  3, STRESS PERIOD   2
 UBDSV1 SAVING "FLOW RIGHT FACE " ON UNIT  53 AT TIME STEP  3, STRESS PERIOD   2
 UBDSV1 SAVING "FLOW FRONT FACE " ON UNIT  53 AT TIME STEP  3, STRESS PERIOD   2
1
              HEAD IN LAYER   1 AT END OF TIME STEP   3 IN STRESS PERIOD    2
  ---------------------------------------------------------------------------

            1           2           3           4           5           6           7           8           9          10
           11          12          13          14          15          16          17          18          19          20
           21          22          23          24          25          26          27          28          29          30
           31          32          33          34          35          36          37          38          39          40
           41          42          43          44          45          46          47          48          49          50
 ........................................................................................................................
   1    10.00       9.960       9.905       9.850       9.804       9.748       9.694       9.637       9.560       9.498    
        9.461       9.424       9.383       9.342       9.276       9.203       9.124       9.062       9.034       9.003    
        8.963       8.929       8.893       8.847       8.783       8.671       8.536       8.405       8.253       8.102    
        7.888       7.549       7.151       6.732       6.263       5.831       5.465       5.124       4.659       4.155    
        3.725       3.300       2.713       2.157       1.768       1.377       1.050      0.8388      0.5562       0.000    
   2    10.00       9.959       9.910       9.855       9.807       9.755       9.694       9.620       9.546       9.498    
        9.465       9.432       9.400       9.349       9.273       9.198       9.126       9.065       9.035       8.999    
        8.959       8.933       8.905       8.856       8.783       8.676       8.541       8.403       8.261       8.110    
        7.878       7.529       7.111       6.638       6.165       5.748       5.421       5.087       4.616       4.143    
        3.709       3.197       2.667       2.226       1.839       1.475       1.101      0.7967      0.4253       0.000    
   3    10.00       9.956       9.908       9.858       9.809       9.750       9.675       9.604       9.557       9.513    
        9.475       9.446       9.415       9.366       9.291       9.198       9.122       9.071       9.033       8.998    
        8.964       8.936       8.908       8.848       8.770       8.662       8.534       8.431       8.280       8.101    
        7.803       7.399       6.957       6.500       6.063       5.673       5.380       5.037       4.529       4.069    
        3.707       3.239       2.749       2.325       1.922       1.554       1.112      0.6836      0.3006       0.000    
   4    10.00       9.959       9.911       9.857       9.796       9.728       9.656       9.604       9.564       9.523    
        9.489       9.465       9.430       9.378       9.309       9.207       9.123       9.076       9.035       9.002    
        8.965       8.931       8.896       8.833       8.754       8.651       8.526       8.411       8.295       8.070    
        7.688       7.199       6.729       6.381       6.051       5.670       5.292       4.859       4.431       4.093    
        3.769       3.353       2.860       2.440       2.017       1.571       1.061      0.6072      0.2828       0.000    
   5    10.00       9.956       9.906       9.843       9.781       9.718       9.655       9.610       9.569       9.533    
        9.504       9.478       9.438       9.378       9.298       9.205       9.133       9.083       9.041       8.996    
        8.953       8.919       8.875       8.809       8.736       8.619       8.496       8.397       8.279       7.998    
        7.504       6.973       6.587       6.320       6.019       5.630       5.201       4.774       4.466       4.178    
        3.883       3.450       2.935       2.567       2.135       1.551      0.9654      0.5604      0.2819       0.000    
   6    10.00       9.946       9.886       9.837       9.778       9.713       9.660       9.620       9.577       9.544    
        9.517       9.486       9.434       9.365       9.296       9.220       9.142       9.081       9.029       8.978    
        8.940       8.905       8.864       8.795       8.687       8.577       8.484       8.376       8.183       7.785    
        7.244       6.770       6.475       6.270       6.024       5.599       5.131       4.785       4.557       4.302    
        4.011       3.618       3.103       2.644       2.109       1.484      0.8655      0.4928      0.2753       0.000    
   7    10.00       9.930       9.874       9.827       9.770       9.723       9.673       9.631       9.595       9.560    
        9.525       9.480       9.418       9.351       9.289       9.227       9.143       9.061       9.006       8.964    
        8.927       8.889       8.847       8.759       8.649       8.558       8.457       8.292       7.978       7.481    
        6.969       6.599       6.412       6.248       5.939       5.524       5.210       4.901       4.649       4.467    
        4.170       3.760       3.207       2.612       1.953       1.236      0.7252      0.5003      0.2533       0.000    
   8    10.00       9.926       9.874       9.823       9.773       9.731       9.688       9.648       9.613       9.580    
        9.529       9.464       9.400       9.341       9.284       9.209       9.110       9.033       8.992       8.951    
        8.909       8.876       8.812       8.722       8.624       8.518       8.334       8.077       7.662       7.236    
        6.847       6.546       6.397       6.198       5.855       5.531       5.268       5.038       4.828       4.609    
        4.298       3.790       3.151       2.473       1.724       1.115      0.7674      0.4907      0.2260       0.000    
   9    10.00       9.930       9.871       9.821       9.785       9.750       9.709       9.669       9.629       9.592    
        9.529       9.450       9.384       9.325       9.257       9.174       9.087       9.019       8.975       8.933    
        8.895       8.845       8.759       8.677       8.582       8.441       8.183       7.803       7.398       7.090    
        6.779       6.545       6.377       6.113       5.794       5.538       5.347       5.162       4.979       4.739    
        4.350       3.818       3.138       2.380       1.690       1.154      0.7827      0.4866      0.2412       0.000    
  10    10.00       9.928       9.869       9.828       9.796       9.763       9.726       9.692       9.646       9.587    
        9.512       9.434       9.370       9.306       9.237       9.142       9.054       9.000       8.960       8.918    
        8.879       8.803       8.711       8.625       8.501       8.303       7.937       7.524       7.194       6.960    
        6.763       6.560       6.344       6.072       5.790       5.584       5.429       5.273       5.066       4.784    
        4.366       3.782       3.055       2.377       1.830       1.322      0.8379      0.5165      0.2721       0.000    
  11    10.00       9.919       9.874       9.839       9.807       9.778       9.745       9.700       9.637       9.572    
        9.498       9.421       9.361       9.279       9.185       9.104       9.040       8.989       8.950       8.904    
        8.839       8.745       8.624       8.503       8.303       8.020       7.695       7.401       7.121       6.935    
        6.767       6.513       6.262       6.057       5.857       5.690       5.530       5.325       5.077       4.748    
        4.355       3.837       3.097       2.477       1.991       1.502      0.9647      0.5113      0.2052       0.000    
  12    10.00       9.926       9.881       9.845       9.819       9.788       9.752       9.692       9.619       9.553    
        9.483       9.409       9.329       9.232       9.156       9.087       9.022       8.978       8.931       8.867    
        8.753       8.603       8.442       8.272       8.035       7.814       7.614       7.326       7.078       6.909    
        6.721       6.493       6.274       6.090       5.945       5.790       5.592       5.358       5.059       4.711    
        4.322       3.815       3.135       2.579       2.138       1.609       1.014      0.4831      0.1607       0.000    
  13    10.00       9.943       9.901       9.862       9.828       9.793       9.742       9.669       9.594       9.529    
        9.458       9.385       9.303       9.206       9.120       9.052       9.006       8.954       8.893       8.761    
        8.567       8.391       8.221       8.018       7.833       7.712       7.484       7.227       7.073       6.912    
        6.697       6.484       6.311       6.160       6.029       5.882       5.648       5.351       5.054       4.692    
        4.302       3.784       3.081       2.562       2.152       1.573      0.9440      0.4368      0.1262       0.000    
  14    10.00       9.958       9.921       9.880       9.839       9.786       9.714       9.638       9.571       9.499    
        9.429       9.363       9.269       9.164       9.089       9.033       8.967       8.897       8.768       8.550    
        8.351       8.194       7.984       7.815       7.718       7.587       7.364       7.196       7.058       6.895    
        6.692       6.523       6.396       6.247       6.099       5.937       5.671       5.340       5.019       4.649    
        4.230       3.605       2.944       2.524       2.023       1.468      0.9315      0.3992      0.1027       0.000    
  15    10.00       9.967       9.929       9.889       9.842       9.764       9.675       9.609       9.544       9.476    
        9.423       9.348       9.229       9.118       9.051       8.968       8.885       8.799       8.597       8.352    
        8.188       7.981       7.789       7.711       7.637       7.491       7.306       7.143       7.025       6.884    
        6.720       6.590       6.468       6.331       6.163       5.957       5.647       5.271       4.934       4.593    
        4.139       3.529       2.955       2.390       1.784       1.288      0.8013      0.3519      0.1056       0.000    
  16    10.00       9.976       9.939       9.892       9.820       9.725       9.649       9.595       9.537       9.468    
        9.398       9.297       9.164       9.062       8.973       8.880       8.822       8.667       8.388       8.170    
        8.005       7.807       7.719       7.657       7.554       7.389       7.236       7.129       7.035       6.906    
        6.758       6.637       6.533       6.381       6.172       5.917       5.547       5.205       4.937       4.566    
        4.049       3.392       2.735       2.109       1.595       1.105      0.6830      0.3342      0.1127       0.000    
  17    10.00       9.976       9.938       9.876       9.787       9.693       9.629       9.581       9.518       9.442    
        9.333       9.208       9.093       8.987       8.883       8.797       8.673       8.430       8.179       8.028    
        7.871       7.737       7.668       7.570       7.421       7.291       7.223       7.153       7.061       6.919    
        6.781       6.669       6.564       6.423       6.135       5.786       5.467       5.220       4.961       4.493    
        3.805       3.139       2.515       1.902       1.364      0.8941      0.5726      0.2990      0.1228       0.000    
  18    10.00       9.971       9.926       9.852       9.743       9.668       9.618       9.554       9.483       9.382    
        9.254       9.146       9.035       8.899       8.770       8.638       8.469       8.234       8.050       7.920    
        7.791       7.677       7.580       7.453       7.335       7.271       7.231       7.179       7.080       6.944    
        6.818       6.701       6.568       6.340       6.046       5.744       5.466       5.242       4.881       4.262    
        3.562       2.858       2.194       1.693       1.265      0.8383      0.4918      0.2473      0.1185       0.000    
  19    10.00       9.964       9.915       9.809       9.700       9.656       9.603       9.525       9.439       9.333    
        9.218       9.118       8.964       8.768       8.621       8.492       8.296       8.088       7.964       7.865    
        7.736       7.606       7.501       7.392       7.318       7.270       7.230       7.175       7.089       6.976    
        6.862       6.726       6.526       6.289       6.026       5.726       5.469       5.150       4.548       3.917    
        3.357       2.632       2.004       1.607       1.183      0.7562      0.4439      0.2517      0.1289       0.000    
  20    10.00       9.956       9.874       9.765       9.687       9.640       9.583       9.500       9.406       9.310    
        9.194       9.047       8.824       8.637       8.512       8.358       8.169       8.056       7.946       7.813    
        7.677       7.558       7.447       7.359       7.301       7.259       7.210       7.157       7.091       6.999    
        6.887       6.729       6.499       6.249       5.971       5.704       5.385       4.822       4.186       3.689    
        3.088       2.424       1.955       1.571       1.143      0.6707      0.3875      0.2620      0.1350       0.000    
  21    10.00       9.927       9.840       9.749       9.673       9.624       9.563       9.467       9.374       9.285    
        9.132       8.913       8.695       8.558       8.423       8.266       8.129       8.026       7.901       7.764    
        7.632       7.516       7.415       7.325       7.255       7.202       7.168       7.132       7.077       7.002    
        6.894       6.693       6.435       6.175       5.889       5.596       5.117       4.538       4.036       3.436    
        2.869       2.348       1.952       1.564      0.9621      0.5425      0.3921      0.2958      0.1418       0.000    
  22    10.00       9.908       9.804       9.724       9.664       9.605       9.520       9.433       9.351       9.230    
        9.038       8.796       8.628       8.508       8.360       8.203       8.075       7.969       7.857       7.729    
        7.599       7.479       7.355       7.230       7.144       7.114       7.106       7.082       7.047       6.985    
        6.849       6.614       6.374       6.092       5.788       5.497       5.003       4.437       3.785       3.208    
        2.799       2.383       1.907       1.259      0.7493      0.5404      0.4108      0.2734      0.1011       0.000    
  23    10.00       9.882       9.781       9.719       9.656       9.569       9.478       9.414       9.312       9.163    
        8.943       8.740       8.620       8.471       8.282       8.128       8.030       7.945       7.841       7.706    
        7.569       7.432       7.261       7.046       6.873       6.903       6.986       7.013       7.001       6.935    
        6.780       6.535       6.286       6.029       5.732       5.394       4.893       4.199       3.552       3.146    
        2.770       2.246       1.567       1.013      0.7368      0.5508      0.3939      0.2323      9.2446E-02   0.000    
  24    10.00       9.865       9.792       9.718       9.630       9.541       9.471       9.400       9.303       9.107    
        8.903       8.752       8.615       8.417       8.210       8.102       8.020       7.937       7.820       7.694    
        7.575       7.404       7.128       6.708       6.158       6.433       6.761       6.918       6.941       6.856    
        6.685       6.455       6.224       5.945       5.633       5.227       4.608       3.961       3.475       3.052    
        2.591       2.010       1.404      0.9817      0.7378      0.5364      0.3592      0.2516      0.1235       0.000    
  25    10.00       9.881       9.807       9.713       9.622       9.541       9.471       9.405       9.262       9.072    
        8.915       8.762       8.580       8.362       8.209       8.114       8.022       7.924       7.817       7.710    
        7.577       7.417       7.027       6.185       4.519       5.866       6.539       6.827       6.877       6.772    
        6.594       6.388       6.152       5.806       5.420       4.914       4.352       3.845       3.425       2.928    
        2.373       1.818       1.309      0.9725      0.7646      0.5573      0.3784      0.2635      0.1640       0.000    
  26    10.00       9.897       9.826       9.728       9.629       9.555       9.481       9.384       9.242       9.109    
        8.958       8.744       8.521       8.344       8.230       8.137       8.031       7.909       7.806       7.717    
        7.610       7.464       7.156       6.597       5.916       6.328       6.724       6.875       6.848       6.679    
        6.476       6.297       6.019       5.652       5.253       4.781       4.170       3.694       3.306       2.709    
        2.085       1.600       1.296       1.062      0.8245      0.6015      0.4124      0.2862      0.1672       0.000    
  27    10.00       9.919       9.831       9.743       9.658       9.570       9.487       9.389       9.270       9.146    
        8.951       8.706       8.509       8.361       8.263       8.151       8.011       7.887       7.808       7.736    
        7.657       7.532       7.322       7.041       6.767       6.804       6.919       6.927       6.787       6.571    
        6.391       6.219       5.932       5.555       5.108       4.494       3.940       3.557       2.980       2.361    
        1.880       1.570       1.341       1.136      0.9013      0.6565      0.4480      0.3150      0.1987       0.000    
  28    10.00       9.924       9.853       9.773       9.690       9.596       9.504       9.408       9.303       9.154    
        8.923       8.706       8.530       8.381       8.273       8.157       8.040       7.924       7.819       7.747    
        7.684       7.597       7.475       7.307       7.168       7.075       7.025       6.919       6.735       6.527    
        6.331       6.128       5.809       5.377       4.829       4.223       3.764       3.242       2.651       2.217    
        1.876       1.613       1.389       1.175      0.9470      0.7164      0.5082      0.3586      0.2049       0.000    
  29    10.00       9.930       9.860       9.797       9.716       9.631       9.540       9.440       9.323       9.122    
        8.904       8.716       8.542       8.412       8.282       8.156       8.049       7.954       7.857       7.767    
        7.698       7.630       7.552       7.458       7.325       7.200       7.050       6.899       6.701       6.447    
        6.227       5.940       5.619       5.102       4.492       3.993       3.548       3.016       2.548       2.233    
        1.957       1.669       1.415       1.210       1.004      0.7575      0.5369      0.3746      0.2077       0.000    
  30    10.00       9.939       9.881       9.826       9.752       9.668       9.585       9.470       9.309       9.123    
        8.899       8.691       8.547       8.411       8.283       8.168       8.077       7.989       7.889       7.786    
        7.706       7.647       7.581       7.510       7.360       7.168       7.005       6.844       6.616       6.361    
        6.053       5.669       5.302       4.816       4.364       3.912       3.444       2.952       2.602       2.317    
        1.990       1.701       1.481       1.247       1.002      0.7837      0.5722      0.3978      0.2235       0.000    
  31    10.00       9.952       9.904       9.851       9.795       9.726       9.630       9.484       9.297       9.099    
        8.880       8.691       8.557       8.420       8.297       8.183       8.092       8.014       7.899       7.793    
        7.717       7.649       7.578       7.447       7.258       7.103       6.965       6.800       6.553       6.229    
        5.811       5.406       5.072       4.713       4.296       3.825       3.358       2.960       2.716       2.444    
        2.081       1.764       1.513       1.276       1.049      0.8242      0.6062      0.4186      0.2167       0.000    
  32    10.00       9.958       9.923       9.877       9.824       9.757       9.653       9.481       9.308       9.119    
        8.889       8.713       8.582       8.433       8.292       8.193       8.112       8.012       7.908       7.803    
        7.704       7.624       7.504       7.328       7.189       7.094       6.953       6.729       6.411       6.028    
        5.619       5.267       4.956       4.631       4.229       3.811       3.446       3.109       2.829       2.517    
        2.182       1.869       1.605       1.334       1.086      0.8960      0.6682      0.4106      0.1833       0.000    
  33    10.00       9.964       9.937       9.897       9.842       9.770       9.631       9.461       9.322       9.147    
        8.934       8.761       8.596       8.418       8.288       8.209       8.132       8.022       7.906       7.783    
        7.674       7.564       7.403       7.261       7.171       7.077       6.841       6.540       6.240       5.914    
        5.536       5.244       4.932       4.549       4.184       3.818       3.524       3.259       2.939       2.596    
        2.307       2.012       1.722       1.442       1.182      0.9697      0.7146      0.4124      0.1792       0.000    
  34    10.00       9.970       9.949       9.915       9.842       9.734       9.604       9.486       9.340       9.165    
        8.976       8.780       8.586       8.407       8.304       8.237       8.146       8.026       7.877       7.744    
        7.620       7.470       7.319       7.210       7.116       6.953       6.688       6.428       6.148       5.786    
        5.464       5.241       4.933       4.570       4.218       3.887       3.611       3.347       3.020       2.711    
        2.454       2.171       1.854       1.575       1.311       1.068      0.7640      0.4638      0.2432       0.000    
  35    10.00       9.975       9.949       9.899       9.808       9.701       9.608       9.504       9.383       9.188    
        8.975       8.769       8.568       8.425       8.336       8.260       8.147       8.008       7.845       7.683    
        7.499       7.348       7.206       7.111       7.012       6.857       6.602       6.316       6.003       5.643    
        5.413       5.175       4.876       4.614       4.324       3.981       3.681       3.462       3.155       2.828    
        2.580       2.290       1.973       1.698       1.424       1.158      0.8756      0.5803      0.2871       0.000    
  36    10.00       9.969       9.926       9.871       9.786       9.686       9.607       9.515       9.382       9.187    
        8.948       8.725       8.584       8.479       8.384       8.274       8.133       7.977       7.779       7.519    
        7.327       7.212       7.102       7.022       6.932       6.748       6.472       6.174       5.806       5.504    
        5.319       5.131       4.881       4.633       4.393       4.089       3.792       3.561       3.288       2.932    
        2.660       2.337       2.021       1.811       1.545       1.249      0.9658      0.6572      0.3215       0.000    
  37    10.00       9.951       9.905       9.849       9.765       9.678       9.587       9.498       9.372       9.142    
        8.890       8.722       8.641       8.533       8.405       8.286       8.090       7.885       7.604       7.330    
        7.231       7.135       7.030       6.939       6.829       6.609       6.343       5.956       5.635       5.451    
        5.300       5.106       4.863       4.671       4.428       4.141       3.910       3.689       3.382       2.991    
        2.635       2.332       2.112       1.895       1.628       1.347       1.064      0.7248      0.3980       0.000    
  38    10.00       9.944       9.883       9.825       9.750       9.666       9.568       9.471       9.323       9.106    
        8.917       8.785       8.679       8.572       8.423       8.205       7.972       7.716       7.400       7.237    
        7.158       7.027       6.907       6.837       6.704       6.477       6.097       5.750       5.593       5.458    
        5.301       5.099       4.883       4.693       4.457       4.198       4.009       3.784       3.393       2.963    
        2.654       2.401       2.183       1.959       1.723       1.437       1.155      0.8382      0.4142       0.000    
  39    10.00       9.927       9.867       9.814       9.742       9.644       9.539       9.438       9.298       9.120    
        8.970       8.867       8.741       8.583       8.338       8.053       7.790       7.485       7.272       7.176    
        7.038       6.884       6.796       6.726       6.597       6.295       5.933       5.740       5.601       5.463    
        5.286       5.098       4.891       4.703       4.525       4.313       4.065       3.793       3.408       3.007    
        2.682       2.421       2.249       2.061       1.795       1.513       1.226      0.8725      0.4088       0.000    
  40    10.00       9.918       9.861       9.806       9.730       9.629       9.526       9.425       9.301       9.150    
        9.025       8.930       8.759       8.493       8.176       7.891       7.613       7.359       7.211       7.075    
        6.912       6.783       6.715       6.621       6.452       6.185       5.952       5.766       5.613       5.470    
        5.298       5.097       4.904       4.748       4.593       4.379       4.093       3.808       3.417       2.988    
        2.683       2.476       2.287       2.127       1.847       1.538       1.276      0.8750      0.4073       0.000    
  41    10.00       9.925       9.858       9.791       9.709       9.629       9.543       9.448       9.324       9.185    
        9.064       8.940       8.705       8.380       8.055       7.791       7.520       7.282       7.133       6.981    
        6.816       6.707       6.626       6.516       6.346       6.153       6.001       5.822       5.633       5.466    
        5.302       5.123       4.939       4.804       4.639       4.426       4.140       3.747       3.299       2.968    
        2.747       2.547       2.352       2.128       1.837       1.541       1.317      0.9322      0.4227       0.000    
  42    10.00       9.924       9.848       9.789       9.728       9.654       9.561       9.452       9.345       9.237    
        9.074       8.851       8.576       8.265       7.964       7.724       7.458       7.230       7.066       6.894    
        6.741       6.644       6.552       6.454       6.305       6.176       6.049       5.846       5.634       5.485    
        5.353       5.157       4.961       4.830       4.678       4.451       4.099       3.636       3.226       2.980    
        2.814       2.635       2.386       2.088       1.809       1.578       1.345      0.9833      0.4851       0.000    
  43    10.00       9.917       9.853       9.802       9.753       9.681       9.589       9.485       9.363       9.187    
        8.969       8.738       8.482       8.159       7.890       7.668       7.429       7.196       6.989       6.827    
        6.693       6.595       6.519       6.440       6.316       6.185       6.056       5.845       5.662       5.553    
        5.392       5.182       4.994       4.859       4.681       4.387       3.981       3.543       3.244       3.056    
        2.878       2.673       2.367       2.062       1.815       1.592       1.391      0.9972      0.4557       0.000    
  44    10.00       9.917       9.860       9.814       9.756       9.701       9.624       9.481       9.296       9.090    
        8.906       8.673       8.363       8.094       7.881       7.624       7.363       7.113       6.908       6.767    
        6.669       6.587       6.513       6.432       6.326       6.192       6.019       5.845       5.722       5.593    
        5.449       5.266       5.050       4.845       4.628       4.299       3.874       3.513       3.282       3.100    
        2.921       2.677       2.382       2.118       1.854       1.614       1.369      0.9003      0.4140       0.000    
  45    10.00       9.926       9.873       9.813       9.756       9.707       9.579       9.408       9.219       9.042    
        8.891       8.577       8.256       8.060       7.829       7.543       7.258       7.027       6.862       6.752    
        6.679       6.602       6.521       6.426       6.309       6.177       6.032       5.899       5.791       5.657    
        5.490       5.301       5.078       4.820       4.560       4.207       3.808       3.524       3.348       3.161    
        2.922       2.643       2.390       2.149       1.915       1.676       1.278      0.8000      0.4026       0.000    
  46    10.00       9.940       9.883       9.813       9.747       9.651       9.510       9.380       9.222       9.032    
        8.779       8.480       8.223       7.975       7.727       7.451       7.186       7.016       6.881       6.776    
        6.702       6.628       6.524       6.406       6.293       6.183       6.068       5.947       5.839       5.720    
        5.570       5.370       5.118       4.811       4.441       4.074       3.779       3.578       3.395       3.200    
        2.917       2.620       2.368       2.177       1.954       1.643       1.190      0.7641      0.3767       0.000    
  47    10.00       9.951       9.897       9.827       9.713       9.586       9.466       9.364       9.218       8.967    
        8.664       8.390       8.166       7.959       7.696       7.395       7.162       7.001       6.892       6.805    
        6.724       6.636       6.527       6.404       6.295       6.208       6.114       5.995       5.870       5.754    
        5.622       5.455       5.120       4.690       4.329       4.066       3.819       3.646       3.484       3.213    
        2.869       2.555       2.327       2.195       1.948       1.567       1.125      0.7370      0.3724       0.000    
  48    10.00       9.956       9.900       9.795       9.678       9.569       9.448       9.344       9.196       8.913    
        8.582       8.353       8.169       7.915       7.609       7.338       7.163       7.001       6.893       6.824    
        6.742       6.636       6.519       6.406       6.317       6.248       6.164       6.032       5.887       5.762    
        5.625       5.423       5.074       4.717       4.396       4.105       3.885       3.708       3.501       3.157    
        2.787       2.545       2.363       2.130       1.806       1.468       1.089      0.7423      0.3930       0.000    
  49    10.00       9.953       9.869       9.767       9.679       9.562       9.444       9.334       9.148       8.848    
        8.552       8.333       8.103       7.846       7.616       7.363       7.119       6.969       6.903       6.838    
        6.760       6.639       6.503       6.405       6.337       6.286       6.189       6.037       5.885       5.771    
        5.622       5.357       5.050       4.797       4.528       4.207       3.922       3.703       3.459       3.091    
        2.793       2.581       2.330       1.994       1.707       1.402       1.071      0.7545      0.3842       0.000    
  50    10.00       9.941       9.848       9.755       9.684       9.574       9.444       9.304       9.103       8.866    
        8.566       8.273       8.034       7.829       7.644       7.361       7.082       6.969       6.911       6.848    
        6.773       6.636       6.491       6.402       6.348       6.302       6.193       6.030       5.884       5.769    
        5.606       5.327       5.091       4.874       4.582       4.263       3.974       3.684       3.333       3.007    
        2.850       2.626       2.260       1.923       1.682       1.392       1.104      0.7369      0.3027       0.000    

 HEAD WILL BE SAVED ON UNIT   51 AT END OF TIME STEP   3, STRESS PERIOD    2

 DRAWDOWN WILL BE SAVED ON UNIT   52 AT END OF TIME STEP   3, STRESS PERIOD    2
1
  VOLUMETRIC BUDGET FOR ENTIRE MODEL AT END OF TIME STEP  3 IN STRESS PERIOD   2
  ------------------------------------------------------------------------------

     CUMULATIVE VOLUMES      L**3       RATES FOR THIS TIME STEP      L**3/T
     ------------------                 ------------------------

           IN:                                      IN:
           ---                                      ---
             STORAGE =        1500.0061               STORAGE =         500.0006
       CONSTANT HEAD =        2159.5701         CONSTANT HEAD =         539.8926
               WELLS =           0.0000                 WELLS =           0.0000

            TOTAL IN =        3659.5762              TOTAL IN =        1039.8933

          OUT:                                     OUT:
          ----                                     ----
             STORAGE =       7.1128E-03               STORAGE =       1.4686E-03
       CONSTANT HEAD =        2159.5693         CONSTANT HEAD =         539.8923
               WELLS =        1500.0000                 WELLS =         500.0000

           TOTAL OUT =        3659.5764             TOTAL OUT =        1039.8938

            IN - OUT =      -2.4414E-04              IN - OUT =      -4.8828E-04

 PERCENT DISCREPANCY =           0.00     PERCENT DISCREPANCY =           0.00






          TIME SUMMARY AT END OF TIME STEP   3 IN STRESS PERIOD    2
                    SECONDS     MINUTES      HOURS       DAYS        YEARS
                    -----------------------------------------------------------
   TIME STEP LENGTH  86400.      1440.0      24.000      1.0000     2.73785E-03
 STRESS PERIOD TIME 2.59200E+05  4320.0      72.000      3.0000     8.21355E-03
         TOTAL TIME 3.45600E+05  5760.0      96.000      4.0000     1.09514E-02
1
 
 SOLVING FOR HEAD 

 OUTPUT CONTROL FOR STRESS PERIOD    2   TIME STEP   4
    SAVE HEAD FOR ALL LAYERS
    SAVE DRAWDOWN FOR ALL LAYERS
    SAVE BUDGET
    PRINT HEAD FOR ALL LAYERS
    PRINT BUDGET
 UBDSV1 SAVING "         STORAGE" ON UNIT  53 AT TIME STEP  4, STRESS PERIOD   2
 UBDSV2 SAVING "   CONSTANT HEAD" ON UNIT  53 AT TIME STEP  4, STRESS PERIOD   2
 UBDSV1 SAVING "FLOW RIGHT FACE " ON UNIT  53 AT TIME STEP  4, STRESS PERIOD   2
 UBDSV1 SAVING "FLOW FRONT FACE " ON UNIT  53 AT TIME STEP  4, STRESS PERIOD   2
1
              HEAD IN LAYER   1 AT END OF TIME STEP   4 IN STRESS PERIOD    2
  ---------------------------------------------------------------------------

            1           2           3           4           5           6           7           8           9          10
           11          12          13          14          15          16          17          18          19          20
           21          22          23          24          25          26          27          28          29          30
           31          32          33          34          35          36          37          38          39          40
           41          42          43          44          45          46          47          48          49          50
 ........................................................................................................................
   1    10.00       9.960       9.905       9.850       9.804       9.748       9.694       9.637       9.560       9.498    
        9.461       9.424       9.383       9.342       9.276       9.203       9.124       9.062       9.034       9.003    
        8.963       8.929       8.893       8.847       8.783       8.671       8.536       8.405       8.253       8.102    
        7.888       7.549       7.151       6.732       6.263       5.831       5.465       5.124       4.659       4.155    
        3.725       3.300       2.713       2.157       1.768       1.377       1.050      0.8388      0.5562       0.000    
   2    10.00       9.959       9.910       9.855       9.807       9.755       9.694       9.620       9.546       9.498    
        9.465       9.432       9.400       9.349       9.273       9.198       9.126       9.065       9.035       8.999    
        8.959       8.933       8.905       8.856       8.783       8.676       8.541       8.403       8.261       8.110    
        7.878       7.529       7.111       6.638       6.165       5.748       5.421       5.087       4.616       4.143    
        3.709       3.197       2.667       2.226       1.839       1.475       1.101      0.7967      0.4253       0.000    
   3    10.00       9.956       9.908       9.858       9.809       9.750       9.675       9.604       9.557       9.513    
        9.475       9.446       9.415       9.366       9.291       9.198       9.122       9.071       9.033       8.998    
        8.964       8.936       8.908       8.848       8.770       8.662       8.534       8.431       8.280       8.101    
        7.803       7.399       6.957       6.500       6.063       5.673       5.380       5.037       4.529       4.069    
        3.707       3.239       2.749       2.325       1.922       1.554       1.112      0.6836      0.3006       0.000    
   4    10.00       9.959       9.911       9.857       9.796       9.728       9.656       9.604       9.564       9.523    
        9.489       9.465       9.430       9.378       9.309       9.207       9.123       9.076       9.035       9.002    
        8.965       8.931       8.896       8.833       8.754       8.651       8.526       8.411       8.295       8.070    
        7.688       7.199       6.729       6.381       6.051       5.670       5.292       4.859       4.431       4.093    
        3.769       3.353       2.860       2.440       2.017       1.571       1.061      0.6072      0.2828       0.000    
   5    10.00       9.956       9.906       9.843       9.781       9.718       9.655       9.610       9.569       9.533    
        9.504       9.478       9.438       9.378       9.298       9.205       9.133       9.083       9.041       8.996    
        8.953       8.919       8.875       8.809       8.736       8.619       8.496       8.397       8.279       7.998    
        7.504       6.973       6.587       6.320       6.019       5.630       5.201       4.774       4.466       4.178    
        3.883       3.450       2.935       2.567       2.135       1.551      0.9654      0.5604      0.2819       0.000    
   6    10.00       9.946       9.886       9.837       9.778       9.713       9.660       9.620       9.577       9.544    
        9.517       9.486       9.434       9.365       9.296       9.220       9.142       9.081       9.029       8.978    
        8.940       8.905       8.864       8.795       8.687       8.577       8.484       8.376       8.183       7.785    
        7.244       6.770       6.475       6.270       6.024       5.599       5.131       4.785       4.557       4.302    
        4.011       3.618       3.103       2.644       2.109       1.484      0.8655      0.4928      0.2753       0.000    
   7    10.00       9.930       9.874       9.827       9.770       9.723       9.673       9.631       9.595       9.560    
        9.525       9.480       9.418       9.351       9.289       9.227       9.143       9.061       9.006       8.964    
        8.927       8.889       8.847       8.759       8.649       8.558       8.457       8.292       7.978       7.481    
        6.969       6.599       6.412       6.248       5.939       5.524       5.210       4.901       4.649       4.467    
        4.170       3.760       3.207       2.612       1.953       1.236      0.7252      0.5003      0.2533       0.000    
   8    10.00       9.926       9.874       9.823       9.773       9.731       9.688       9.648       9.613       9.580    
        9.529       9.464       9.400       9.341       9.284       9.209       9.110       9.033       8.992       8.951    
        8.909       8.876       8.812       8.721       8.624       8.518       8.334       8.077       7.662       7.236    
        6.847       6.546       6.397       6.198       5.855       5.531       5.268       5.038       4.828       4.609    
        4.298       3.790       3.151       2.473       1.724       1.115      0.7674      0.4907      0.2260       0.000    
   9    10.00       9.930       9.871       9.821       9.785       9.750       9.709       9.669       9.629       9.592    
        9.529       9.450       9.384       9.325       9.257       9.174       9.087       9.019       8.975       8.933    
        8.895       8.845       8.759       8.677       8.582       8.440       8.183       7.802       7.398       7.090    
        6.779       6.545       6.376       6.113       5.794       5.538       5.347       5.162       4.979       4.739    
        4.350       3.818       3.138       2.380       1.690       1.154      0.7827      0.4866      0.2412       0.000    
  10    10.00       9.928       9.869       9.828       9.796       9.763       9.726       9.692       9.646       9.587    
        9.512       9.434       9.370       9.306       9.237       9.142       9.054       9.000       8.960       8.918    
        8.879       8.803       8.711       8.625       8.501       8.303       7.937       7.523       7.194       6.960    
        6.763       6.560       6.344       6.072       5.790       5.584       5.429       5.273       5.066       4.784    
        4.366       3.782       3.055       2.377       1.830       1.322      0.8379      0.5165      0.2721       0.000    
  11    10.00       9.919       9.874       9.839       9.807       9.778       9.745       9.700       9.637       9.572    
        9.498       9.421       9.361       9.279       9.185       9.104       9.040       8.989       8.950       8.904    
        8.839       8.745       8.624       8.502       8.303       8.019       7.695       7.400       7.120       6.935    
        6.766       6.513       6.261       6.057       5.857       5.690       5.530       5.325       5.077       4.748    
        4.355       3.837       3.097       2.477       1.991       1.502      0.9647      0.5113      0.2052       0.000    
  12    10.00       9.926       9.881       9.845       9.819       9.788       9.752       9.692       9.619       9.553    
        9.483       9.409       9.329       9.232       9.156       9.087       9.022       8.978       8.931       8.867    
        8.753       8.602       8.442       8.271       8.033       7.812       7.613       7.324       7.076       6.908    
        6.720       6.492       6.273       6.090       5.944       5.790       5.592       5.358       5.059       4.711    
        4.322       3.815       3.135       2.579       2.138       1.609       1.014      0.4831      0.1607       0.000    
  13    10.00       9.943       9.901       9.862       9.828       9.793       9.742       9.669       9.594       9.529    
        9.458       9.385       9.303       9.206       9.120       9.052       9.006       8.954       8.892       8.760    
        8.566       8.389       8.219       8.015       7.829       7.709       7.481       7.223       7.070       6.910    
        6.695       6.482       6.310       6.160       6.028       5.882       5.648       5.351       5.054       4.692    
        4.302       3.784       3.081       2.562       2.152       1.573      0.9440      0.4368      0.1262       0.000    
  14    10.00       9.958       9.921       9.880       9.839       9.786       9.714       9.638       9.571       9.499    
        9.429       9.363       9.269       9.164       9.088       9.033       8.967       8.897       8.767       8.549    
        8.349       8.191       7.980       7.810       7.712       7.581       7.357       7.190       7.052       6.890    
        6.688       6.521       6.394       6.246       6.099       5.936       5.671       5.340       5.019       4.649    
        4.230       3.605       2.944       2.524       2.023       1.468      0.9315      0.3992      0.1027       0.000    
  15    10.00       9.967       9.929       9.889       9.842       9.764       9.675       9.609       9.544       9.475    
        9.423       9.348       9.229       9.118       9.051       8.967       8.884       8.799       8.596       8.350    
        8.184       7.975       7.780       7.702       7.627       7.481       7.295       7.132       7.015       6.876    
        6.714       6.586       6.465       6.329       6.162       5.956       5.647       5.271       4.934       4.593    
        4.139       3.529       2.955       2.390       1.784       1.288      0.8013      0.3519      0.1056       0.000    
  16    10.00       9.976       9.939       9.892       9.820       9.725       9.649       9.595       9.537       9.468    
        9.398       9.297       9.164       9.061       8.973       8.879       8.822       8.666       8.386       8.165    
        7.998       7.795       7.706       7.644       7.539       7.371       7.217       7.111       7.021       6.896    
        6.751       6.632       6.529       6.379       6.171       5.917       5.547       5.205       4.937       4.566    
        4.049       3.392       2.735       2.109       1.595       1.105      0.6830      0.3342      0.1127       0.000    
  17    10.00       9.976       9.938       9.876       9.787       9.693       9.629       9.581       9.518       9.442    
        9.333       9.208       9.093       8.986       8.882       8.796       8.672       8.428       8.174       8.019    
        7.858       7.719       7.650       7.549       7.395       7.262       7.196       7.131       7.043       6.907    
        6.772       6.663       6.560       6.421       6.134       5.785       5.467       5.220       4.961       4.493    
        3.805       3.139       2.515       1.902       1.364      0.8941      0.5726      0.2990      0.1228       0.000    
  18    10.00       9.971       9.926       9.852       9.743       9.668       9.618       9.554       9.483       9.382    
        9.254       9.146       9.034       8.899       8.769       8.636       8.466       8.228       8.040       7.904    
        7.770       7.651       7.551       7.418       7.297       7.235       7.198       7.150       7.058       6.929    
        6.807       6.694       6.563       6.338       6.045       5.744       5.466       5.242       4.881       4.262    
        3.562       2.858       2.194       1.693       1.265      0.8383      0.4918      0.2473      0.1185       0.000    
  19    10.00       9.964       9.915       9.809       9.700       9.656       9.603       9.525       9.439       9.333    
        9.218       9.118       8.963       8.767       8.619       8.489       8.289       8.076       7.947       7.844    
        7.707       7.568       7.458       7.345       7.271       7.226       7.191       7.141       7.061       6.956    
        6.849       6.718       6.522       6.287       6.025       5.726       5.469       5.150       4.548       3.917    
        3.357       2.632       2.004       1.607       1.183      0.7562      0.4439      0.2517      0.1289       0.000    
  20    10.00       9.956       9.874       9.765       9.687       9.640       9.583       9.500       9.406       9.310    
        9.194       9.047       8.824       8.636       8.509       8.353       8.159       8.042       7.926       7.784    
        7.638       7.510       7.393       7.302       7.245       7.206       7.160       7.114       7.056       6.974    
        6.870       6.720       6.495       6.247       5.970       5.703       5.385       4.822       4.186       3.689    
        3.088       2.424       1.955       1.571       1.143      0.6707      0.3875      0.2620      0.1350       0.000    
  21    10.00       9.927       9.840       9.749       9.673       9.624       9.563       9.467       9.374       9.285    
        9.132       8.913       8.694       8.556       8.420       8.259       8.117       8.008       7.874       7.726    
        7.581       7.456       7.349       7.256       7.186       7.134       7.105       7.078       7.033       6.970    
        6.874       6.684       6.431       6.173       5.889       5.596       5.117       4.538       4.036       3.436    
        2.869       2.348       1.952       1.564      0.9621      0.5425      0.3921      0.2958      0.1418       0.000    
  22    10.00       9.908       9.804       9.724       9.664       9.605       9.520       9.433       9.351       9.230    
        9.038       8.796       8.627       8.506       8.355       8.193       8.059       7.946       7.823       7.682    
        7.538       7.406       7.272       7.140       7.054       7.027       7.027       7.014       6.994       6.945    
        6.827       6.604       6.370       6.091       5.788       5.497       5.003       4.437       3.785       3.208    
        2.799       2.383       1.907       1.259      0.7493      0.5404      0.4108      0.2734      0.1011       0.000    
  23    10.00       9.882       9.781       9.719       9.656       9.569       9.478       9.414       9.312       9.163    
        8.943       8.740       8.618       8.468       8.275       8.115       8.010       7.918       7.803       7.652    
        7.499       7.347       7.159       6.927       6.746       6.782       6.883       6.929       6.937       6.892    
        6.756       6.525       6.282       6.028       5.732       5.394       4.893       4.199       3.552       3.146    
        2.770       2.246       1.567       1.013      0.7368      0.5508      0.3939      0.2323      9.2446E-02   0.000    
  24    10.00       9.865       9.792       9.718       9.630       9.541       9.471       9.400       9.303       9.107    
        8.903       8.752       8.613       8.413       8.200       8.087       7.999       7.909       7.779       7.636    
        7.502       7.311       7.008       6.559       5.983       6.263       6.620       6.815       6.869       6.812    
        6.663       6.445       6.220       5.943       5.633       5.227       4.608       3.961       3.475       3.052    
        2.591       2.010       1.404      0.9817      0.7378      0.5364      0.3592      0.2516      0.1235       0.000    
  25    10.00       9.881       9.807       9.713       9.622       9.541       9.471       9.405       9.262       9.072    
        8.914       8.761       8.578       8.357       8.200       8.099       8.002       7.894       7.775       7.654    
        7.503       7.323       6.895       6.007       4.309       5.663       6.367       6.705       6.803       6.733    
        6.575       6.380       6.149       5.805       5.420       4.914       4.352       3.845       3.425       2.928    
        2.373       1.818       1.309      0.9725      0.7646      0.5573      0.3784      0.2635      0.1640       0.000    
  26    10.00       9.897       9.826       9.728       9.629       9.555       9.481       9.384       9.242       9.109    
        8.958       8.743       8.519       8.339       8.222       8.125       8.012       7.879       7.764       7.664    
        7.542       7.374       7.030       6.425       5.710       6.122       6.555       6.758       6.787       6.652    
        6.464       6.291       6.017       5.652       5.253       4.781       4.170       3.694       3.306       2.709    
        2.085       1.600       1.296       1.062      0.8245      0.6015      0.4124      0.2862      0.1672       0.000    
  27    10.00       9.919       9.831       9.743       9.658       9.570       9.487       9.389       9.270       9.146    
        8.951       8.705       8.507       8.357       8.257       8.141       7.992       7.856       7.769       7.688    
        7.597       7.454       7.215       6.901       6.596       6.636       6.783       6.843       6.749       6.556    
        6.383       6.215       5.930       5.555       5.108       4.494       3.940       3.557       2.980       2.361    
        1.880       1.570       1.341       1.136      0.9013      0.6565      0.4480      0.3150      0.1987       0.000    
  28    10.00       9.924       9.853       9.773       9.690       9.596       9.504       9.408       9.303       9.154    
        8.923       8.706       8.528       8.377       8.268       8.148       8.025       7.900       7.783       7.704    
        7.633       7.535       7.395       7.204       7.049       6.957       6.935       6.869       6.712       6.516    
        6.326       6.126       5.808       5.377       4.829       4.223       3.764       3.242       2.651       2.217    
        1.876       1.613       1.389       1.175      0.9470      0.7164      0.5082      0.3586      0.2049       0.000    
  29    10.00       9.930       9.860       9.797       9.716       9.631       9.540       9.440       9.323       9.122    
        8.903       8.715       8.541       8.409       8.278       8.149       8.036       7.935       7.829       7.731    
        7.655       7.580       7.493       7.388       7.245       7.130       7.004       6.871       6.688       6.441    
        6.224       5.939       5.619       5.102       4.492       3.993       3.548       3.016       2.548       2.233    
        1.957       1.669       1.415       1.210       1.004      0.7575      0.5369      0.3746      0.2077       0.000    
  30    10.00       9.939       9.881       9.826       9.752       9.668       9.585       9.470       9.309       9.123    
        8.898       8.690       8.545       8.409       8.279       8.162       8.067       7.975       7.869       7.758    
        7.672       7.608       7.537       7.462       7.322       7.140       6.987       6.832       6.611       6.358    
        6.052       5.669       5.302       4.816       4.364       3.912       3.444       2.952       2.602       2.317    
        1.990       1.701       1.481       1.247       1.002      0.7837      0.5722      0.3978      0.2235       0.000    
  31    10.00       9.952       9.904       9.851       9.795       9.726       9.630       9.484       9.297       9.099    
        8.879       8.691       8.556       8.419       8.294       8.179       8.085       8.005       7.886       7.774    
        7.694       7.622       7.550       7.423       7.245       7.093       6.957       6.794       6.550       6.228    
        5.810       5.406       5.072       4.713       4.296       3.825       3.358       2.960       2.716       2.444    
        2.081       1.764       1.513       1.276       1.049      0.8242      0.6062      0.4186      0.2167       0.000    
  32    10.00       9.958       9.923       9.877       9.824       9.757       9.653       9.481       9.308       9.119    
        8.889       8.713       8.582       8.432       8.290       8.190       8.107       8.006       7.900       7.790    
        7.690       7.607       7.489       7.319       7.183       7.089       6.949       6.727       6.410       6.028    
        5.619       5.267       4.956       4.631       4.229       3.811       3.446       3.109       2.829       2.517    
        2.182       1.869       1.605       1.334       1.086      0.8960      0.6682      0.4106      0.1833       0.000    
  33    10.00       9.964       9.937       9.897       9.842       9.770       9.631       9.461       9.322       9.147    
        8.933       8.760       8.596       8.417       8.287       8.207       8.129       8.018       7.900       7.776    
        7.665       7.554       7.396       7.256       7.168       7.074       6.839       6.539       6.239       5.914    
        5.536       5.244       4.932       4.549       4.184       3.818       3.524       3.259       2.939       2.596    
        2.307       2.012       1.722       1.442       1.182      0.9697      0.7146      0.4124      0.1792       0.000    
  34    10.00       9.970       9.949       9.915       9.842       9.734       9.604       9.486       9.340       9.165    
        8.976       8.780       8.585       8.406       8.303       8.236       8.144       8.024       7.874       7.740    
        7.616       7.465       7.316       7.207       7.113       6.952       6.687       6.428       6.148       5.786    
        5.464       5.241       4.933       4.570       4.218       3.887       3.611       3.347       3.020       2.711    
        2.454       2.171       1.854       1.575       1.311       1.068      0.7640      0.4638      0.2432       0.000    
  35    10.00       9.975       9.949       9.899       9.808       9.701       9.608       9.504       9.383       9.188    
        8.975       8.768       8.568       8.425       8.336       8.259       8.146       8.007       7.843       7.681    
        7.497       7.346       7.205       7.109       7.011       6.857       6.601       6.316       6.003       5.643    
        5.413       5.175       4.876       4.614       4.324       3.981       3.681       3.462       3.155       2.828    
        2.580       2.290       1.973       1.698       1.424       1.158      0.8756      0.5803      0.2871       0.000    
  36    10.00       9.969       9.926       9.871       9.786       9.686       9.607       9.515       9.382       9.187    
        8.948       8.724       8.584       8.478       8.384       8.273       8.132       7.976       7.778       7.518    
        7.327       7.211       7.101       7.022       6.932       6.748       6.471       6.174       5.806       5.504    
        5.319       5.131       4.881       4.633       4.393       4.089       3.792       3.561       3.288       2.932    
        2.660       2.337       2.021       1.811       1.545       1.249      0.9658      0.6572      0.3215       0.000    
  37    10.00       9.951       9.905       9.849       9.765       9.678       9.587       9.498       9.372       9.142    
        8.890       8.722       8.640       8.532       8.405       8.286       8.090       7.885       7.603       7.330    
        7.231       7.135       7.029       6.939       6.829       6.609       6.343       5.956       5.635       5.451    
        5.300       5.106       4.863       4.671       4.428       4.141       3.910       3.689       3.382       2.991    
        2.635       2.332       2.112       1.895       1.628       1.347       1.064      0.7248      0.3980       0.000    
  38    10.00       9.944       9.883       9.825       9.750       9.666       9.568       9.471       9.323       9.106    
        8.917       8.785       8.679       8.572       8.422       8.205       7.972       7.716       7.400       7.237    
        7.158       7.027       6.907       6.837       6.704       6.476       6.097       5.750       5.593       5.458    
        5.301       5.099       4.883       4.693       4.457       4.198       4.009       3.784       3.393       2.963    
        2.654       2.401       2.183       1.959       1.723       1.437       1.155      0.8382      0.4142       0.000    
  39    10.00       9.927       9.867       9.814       9.742       9.644       9.539       9.438       9.298       9.120    
        8.970       8.867       8.741       8.583       8.338       8.053       7.790       7.485       7.272       7.176    
        7.038       6.884       6.796       6.726       6.597       6.295       5.933       5.740       5.601       5.463    
        5.286       5.098       4.891       4.703       4.525       4.313       4.065       3.793       3.408       3.007    
        2.682       2.421       2.249       2.061       1.795       1.513       1.226      0.8725      0.4088       0.000    
  40    10.00       9.918       9.861       9.806       9.730       9.629       9.526       9.425       9.301       9.150    
        9.025       8.930       8.759       8.493       8.176       7.891       7.613       7.359       7.211       7.075    
        6.912       6.783       6.715       6.621       6.452       6.185       5.952       5.766       5.613       5.470    
        5.298       5.097       4.904       4.748       4.593       4.379       4.093       3.808       3.417       2.988    
        2.683       2.476       2.287       2.127       1.847       1.538       1.276      0.8750      0.4073       0.000    
  41    10.00       9.925       9.858       9.791       9.709       9.629       9.543       9.448       9.324       9.185    
        9.064       8.940       8.705       8.380       8.055       7.791       7.520       7.282       7.133       6.981    
        6.816       6.707       6.626       6.516       6.346       6.153       6.001       5.822       5.633       5.466    
        5.302       5.123       4.939       4.804       4.639       4.426       4.140       3.747       3.299       2.968    
        2.747       2.547       2.352       2.128       1.837       1.541       1.317      0.9322      0.4227       0.000    
  42    10.00       9.924       9.848       9.789       9.728       9.654       9.561       9.452       9.345       9.237    
        9.074       8.851       8.576       8.265       7.964       7.724       7.458       7.230       7.066       6.894    
        6.741       6.644       6.552       6.454       6.305       6.176       6.049       5.846       5.634       5.485    
        5.353       5.157       4.961       4.830       4.678       4.451       4.099       3.636       3.226       2.980    
        2.814       2.635       2.386       2.088       1.809       1.578       1.345      0.9833      0.4851       0.000    
  43    10.00       9.917       9.853       9.802       9.753       9.681       9.589       9.485       9.363       9.187    
        8.969       8.738       8.482       8.159       7.890       7.668       7.429       7.196       6.989       6.827    
        6.693       6.595       6.519       6.440       6.316       6.185       6.056       5.845       5.662       5.553    
        5.392       5.182       4.994       4.859       4.681       4.387       3.981       3.543       3.244       3.056    
        2.878       2.673       2.367       2.062       1.815       1.592       1.391      0.9972      0.4557       0.000    
  44    10.00       9.917       9.860       9.814       9.756       9.701       9.624       9.481       9.296       9.090    
        8.906       8.673       8.363       8.094       7.881       7.624       7.363       7.113       6.908       6.767    
        6.669       6.587       6.513       6.432       6.326       6.192       6.019       5.845       5.722       5.593    
        5.449       5.266       5.050       4.845       4.628       4.299       3.874       3.513       3.282       3.100    
        2.921       2.677       2.382       2.118       1.854       1.614       1.369      0.9003      0.4140       0.000    
  45    10.00       9.926       9.873       9.813       9.756       9.707       9.579       9.408       9.219       9.042    
        8.891       8.577       8.256       8.060       7.829       7.543       7.258       7.027       6.862       6.752    
        6.679       6.602       6.521       6.426       6.309       6.177       6.032       5.899       5.791       5.657    
        5.490       5.301       5.078       4.820       4.560       4.207       3.808       3.524       3.348       3.161    
        2.922       2.643       2.390       2.149       1.915       1.676       1.278      0.8000      0.4026       0.000    
  46    10.00       9.940       9.883       9.813       9.747       9.651       9.510       9.380       9.222       9.032    
        8.779       8.480       8.223       7.975       7.727       7.451       7.186       7.016       6.881       6.776    
        6.702       6.628       6.524       6.406       6.293       6.183       6.068       5.947       5.839       5.720    
        5.570       5.370       5.118       4.811       4.441       4.074       3.779       3.578       3.395       3.200    
        2.917       2.620       2.368       2.177       1.954       1.643       1.190      0.7641      0.3767       0.000    
  47    10.00       9.951       9.897       9.827       9.713       9.586       9.466       9.364       9.218       8.967    
        8.664       8.390       8.166       7.959       7.696       7.395       7.162       7.001       6.892       6.805    
        6.724       6.636       6.527       6.404       6.295       6.208       6.114       5.995       5.870       5.754    
        5.622       5.455       5.120       4.690       4.329       4.066       3.819       3.646       3.484       3.213    
        2.869       2.555       2.327       2.195       1.948       1.567       1.125      0.7370      0.3724       0.000    
  48    10.00       9.956       9.900       9.795       9.678       9.569       9.448       9.344       9.196       8.913    
        8.582       8.353       8.169       7.915       7.609       7.338       7.163       7.001       6.893       6.824    
        6.742       6.636       6.519       6.406       6.317       6.248       6.164       6.032       5.887       5.762    
        5.625       5.423       5.074       4.717       4.396       4.105       3.885       3.708       3.501       3.157    
        2.787       2.545       2.363       2.130       1.806       1.468       1.089      0.7423      0.3930       0.000    
  49    10.00       9.953       9.869       9.767       9.679       9.562       9.444       9.334       9.148       8.848    
        8.552       8.333       8.103       7.846       7.616       7.363       7.119       6.969       6.903       6.838    
        6.760       6.639       6.503       6.405       6.337       6.286       6.189       6.037       5.885       5.771    
        5.622       5.357       5.050       4.797       4.528       4.207       3.922       3.703       3.459       3.091    
        2.793       2.581       2.330       1.994       1.707       1.402       1.071      0.7545      0.3842       0.000    
  50    10.00       9.941       9.848       9.755       9.684       9.574       9.444       9.304       9.103       8.866    
        8.566       8.273       8.034       7.829       7.644       7.361       7.082       6.969       6.911       6.848    
        6.773       6.636       6.491       6.402       6.348       6.302       6.193       6.030       5.884       5.769    
        5.606       5.327       5.091       4.874       4.582       4.263       3.974       3.684       3.333       3.007    
        2.850       2.626       2.260       1.923       1.682       1.392       1.104      0.7369      0.3027       0.000    

 HEAD WILL BE SAVED ON UNIT   51 AT END OF TIME STEP   4, STRESS PERIOD    2

 DRAWDOWN WILL BE SAVED ON UNIT   52 AT END OF TIME STEP   4, STRESS PERIOD    2
1
  VOLUMETRIC BUDGET FOR ENTIRE MODEL AT END OF TIME STEP  4 IN STRESS PERIOD   2
  ------------------------------------------------------------------------------

     CUMULATIVE VOLUMES      L**3       RATES FOR THIS TIME STEP      L**3/T
     ------------------                 ------------------------

           IN:                                      IN:
           ---                                      ---
             STORAGE =        2000.0065               STORAGE =         500.0004
       CONSTANT HEAD =        2699.4634         CONSTANT HEAD =         539.8932
               WELLS =           0.0000                 WELLS =           0.0000

            TOTAL IN =        4699.4697              TOTAL IN =        1039.8936

          OUT:                                     OUT:
          ----                                     ----
             STORAGE =       7.9902E-03               STORAGE =       8.7737E-04
       CONSTANT HEAD =        2699.4617         CONSTANT HEAD =         539.8923
               WELLS =        2000.0000                 WELLS =         500.0000

           TOTAL OUT =        4699.4697             TOTAL OUT =        1039.8932

            IN - OUT =           0.0000              IN - OUT =       3.6621E-04

 PERCENT DISCREPANCY =           0.00     PERCENT DISCREPANCY =           0.00






          TIME SUMMARY AT END OF TIME STEP   4 IN STRESS PERIOD    2
                    SECONDS     MINUTES      HOURS       DAYS        YEARS
                    -----------------------------------------------------------
   TIME STEP LENGTH  86400.      1440.0      24.000      1.0000     2.73785E-03
 STRESS PERIOD TIME 3.45600E+05  5760.0      96.000      4.0000     1.09514E-02
         TOTAL TIME 4.32000E+05  7200.0      120.00      5.0000     1.36893E-02
1
 
 SOLVING FOR HEAD 

 OUTPUT CONTROL FOR STRESS PERIOD    2   TIME STEP   5
    SAVE HEAD FOR ALL LAYERS
    SAVE DRAWDOWN FOR ALL LAYERS
    SAVE BUDGET
    PRINT HEAD FOR ALL LAYERS
    PRINT BUDGET
 UBDSV1 SAVING "         STORAGE" ON UNIT  53 AT TIME STEP  5, STRESS PERIOD   2
 UBDSV2 SAVING "   CONSTANT HEAD" ON UNIT  53 AT TIME STEP  5, STRESS PERIOD   2
 UBDSV1 SAVING "FLOW RIGHT FACE " ON UNIT  53 AT TIME STEP  5, STRESS PERIOD   2
 UBDSV1 SAVING "FLOW FRONT FACE " ON UNIT  53 AT TIME STEP  5, STRESS PERIOD   2
1
              HEAD IN LAYER   1 AT END OF TIME STEP   5 IN STRESS PERIOD    2
  ---------------------------------------------------------------------------

            1           2           3           4           5           6           7           8           9          10
           11          12          13          14          15          16          17          18          19          20
           21          22          23          24          25          26          27          28          29          30
           31          32          33          34          35          36          37          38          39          40
           41          42          43          44          45          46          47          48          49          50
 ........................................................................................................................
   1    10.00       9.960       9.905       9.850       9.804       9.748       9.694       9.637       9.560       9.498    
        9.461       9.424       9.383       9.342       9.276       9.203       9.124       9.062       9.034       9.003    
        8.963       8.929       8.893       8.847       8.783       8.671       8.536       8.405       8.253       8.102    
        7.888       7.549       7.151       6.732       6.263       5.831       5.465       5.124       4.659       4.155    
        3.725       3.300       2.713       2.157       1.768       1.377       1.050      0.8388      0.5562       0.000    
   2    10.00       9.959       9.910       9.855       9.807       9.755       9.694       9.620       9.546       9.498    
        9.465       9.432       9.400       9.349       9.273       9.198       9.126       9.065       9.035       8.999    
        8.959       8.933       8.905       8.856       8.783       8.676       8.541       8.403       8.261       8.110    
        7.878       7.529       7.111       6.638       6.165       5.748       5.421       5.087       4.616       4.143    
        3.709       3.197       2.667       2.226       1.839       1.475       1.101      0.7967      0.4253       0.000    
   3    10.00       9.956       9.908       9.858       9.809       9.750       9.675       9.604       9.557       9.513    
        9.475       9.446       9.415       9.366       9.291       9.198       9.122       9.071       9.033       8.998    
        8.964       8.936       8.908       8.848       8.770       8.662       8.534       8.431       8.280       8.101    
        7.803       7.399       6.957       6.500       6.063       5.673       5.380       5.037       4.529       4.069    
        3.707       3.239       2.749       2.325       1.922       1.554       1.112      0.6836      0.3006       0.000    
   4    10.00       9.959       9.911       9.857       9.796       9.728       9.656       9.604       9.564       9.523    
        9.489       9.465       9.430       9.378       9.309       9.207       9.123       9.076       9.035       9.002    
        8.964       8.931       8.896       8.833       8.754       8.651       8.526       8.411       8.295       8.070    
        7.688       7.199       6.729       6.381       6.051       5.670       5.292       4.859       4.431       4.093    
        3.769       3.353       2.860       2.440       2.017       1.571       1.061      0.6072      0.2828       0.000    
   5    10.00       9.956       9.906       9.843       9.781       9.718       9.655       9.610       9.569       9.533    
        9.504       9.478       9.438       9.378       9.298       9.205       9.133       9.083       9.041       8.996    
        8.953       8.919       8.875       8.809       8.735       8.619       8.496       8.397       8.279       7.998    
        7.504       6.973       6.587       6.320       6.019       5.630       5.201       4.774       4.466       4.178    
        3.883       3.450       2.935       2.567       2.135       1.551      0.9654      0.5604      0.2819       0.000    
   6    10.00       9.946       9.886       9.837       9.778       9.713       9.660       9.620       9.577       9.544    
        9.517       9.486       9.434       9.365       9.296       9.220       9.142       9.081       9.029       8.978    
        8.940       8.905       8.864       8.795       8.687       8.577       8.484       8.376       8.183       7.785    
        7.244       6.770       6.475       6.270       6.024       5.599       5.131       4.785       4.557       4.302    
        4.011       3.618       3.103       2.644       2.109       1.484      0.8655      0.4928      0.2753       0.000    
   7    10.00       9.930       9.874       9.827       9.770       9.723       9.673       9.631       9.595       9.560    
        9.525       9.480       9.418       9.351       9.289       9.227       9.143       9.061       9.006       8.964    
        8.927       8.889       8.846       8.759       8.649       8.558       8.457       8.292       7.978       7.481    
        6.969       6.599       6.412       6.248       5.939       5.524       5.210       4.901       4.649       4.467    
        4.170       3.760       3.207       2.612       1.953       1.236      0.7252      0.5003      0.2533       0.000    
   8    10.00       9.926       9.874       9.823       9.773       9.731       9.688       9.648       9.613       9.580    
        9.529       9.464       9.400       9.341       9.284       9.209       9.110       9.033       8.992       8.951    
        8.909       8.876       8.812       8.721       8.624       8.517       8.334       8.077       7.661       7.236    
        6.847       6.546       6.397       6.198       5.855       5.531       5.268       5.038       4.827       4.609    
        4.298       3.790       3.151       2.473       1.724       1.115      0.7674      0.4907      0.2260       0.000    
   9    10.00       9.930       9.871       9.821       9.785       9.750       9.709       9.669       9.629       9.592    
        9.529       9.450       9.384       9.325       9.257       9.174       9.087       9.019       8.974       8.933    
        8.895       8.845       8.759       8.677       8.581       8.440       8.182       7.802       7.397       7.090    
        6.779       6.544       6.376       6.113       5.794       5.538       5.346       5.162       4.979       4.738    
        4.350       3.818       3.138       2.380       1.690       1.154      0.7827      0.4866      0.2412       0.000    
  10    10.00       9.928       9.869       9.828       9.796       9.763       9.726       9.692       9.646       9.587    
        9.512       9.434       9.370       9.306       9.236       9.142       9.054       9.000       8.960       8.918    
        8.879       8.803       8.711       8.625       8.500       8.303       7.936       7.523       7.194       6.959    
        6.763       6.560       6.344       6.072       5.790       5.584       5.429       5.273       5.065       4.784    
        4.366       3.782       3.055       2.377       1.830       1.322      0.8379      0.5165      0.2721       0.000    
  11    10.00       9.919       9.874       9.839       9.807       9.778       9.745       9.700       9.637       9.572    
        9.498       9.421       9.361       9.279       9.185       9.104       9.040       8.989       8.949       8.904    
        8.839       8.745       8.623       8.502       8.302       8.018       7.694       7.399       7.119       6.934    
        6.765       6.512       6.261       6.056       5.856       5.690       5.529       5.325       5.077       4.748    
        4.355       3.837       3.097       2.477       1.991       1.502      0.9647      0.5113      0.2052       0.000    
  12    10.00       9.926       9.881       9.845       9.819       9.788       9.752       9.692       9.619       9.553    
        9.483       9.409       9.329       9.232       9.156       9.087       9.022       8.978       8.931       8.866    
        8.752       8.601       8.440       8.269       8.031       7.809       7.610       7.322       7.074       6.906    
        6.719       6.490       6.272       6.089       5.944       5.789       5.592       5.358       5.059       4.711    
        4.322       3.815       3.135       2.579       2.138       1.609       1.014      0.4831      0.1607       0.000    
  13    10.00       9.943       9.901       9.862       9.828       9.793       9.742       9.669       9.594       9.529    
        9.458       9.385       9.303       9.206       9.120       9.052       9.006       8.954       8.892       8.760    
        8.565       8.387       8.216       8.011       7.824       7.705       7.477       7.218       7.066       6.906    
        6.693       6.480       6.308       6.158       6.027       5.881       5.648       5.351       5.054       4.692    
        4.302       3.784       3.081       2.562       2.152       1.573      0.9440      0.4368      0.1262       0.000    
  14    10.00       9.958       9.921       9.880       9.839       9.786       9.714       9.638       9.571       9.499    
        9.429       9.363       9.269       9.164       9.088       9.033       8.966       8.896       8.766       8.548    
        8.346       8.187       7.973       7.802       7.704       7.573       7.349       7.181       7.044       6.884    
        6.684       6.517       6.391       6.244       6.097       5.936       5.670       5.339       5.019       4.649    
        4.230       3.605       2.944       2.524       2.023       1.468      0.9315      0.3992      0.1027       0.000    
  15    10.00       9.967       9.929       9.889       9.842       9.764       9.675       9.609       9.544       9.475    
        9.423       9.348       9.228       9.118       9.051       8.967       8.884       8.798       8.594       8.346    
        8.179       7.967       7.768       7.690       7.615       7.468       7.281       7.118       7.002       6.866    
        6.707       6.580       6.461       6.327       6.161       5.955       5.646       5.270       4.934       4.593    
        4.139       3.529       2.955       2.390       1.784       1.288      0.8013      0.3519      0.1056       0.000    
  16    10.00       9.976       9.939       9.892       9.820       9.725       9.649       9.595       9.537       9.468    
        9.398       9.297       9.164       9.061       8.972       8.878       8.821       8.665       8.382       8.158    
        7.988       7.780       7.689       7.627       7.521       7.349       7.194       7.091       7.004       6.883    
        6.742       6.625       6.524       6.376       6.169       5.916       5.547       5.205       4.937       4.566    
        4.049       3.392       2.735       2.109       1.595       1.105      0.6830      0.3342      0.1127       0.000    
  17    10.00       9.976       9.938       9.876       9.787       9.693       9.629       9.581       9.518       9.442    
        9.333       9.207       9.093       8.986       8.881       8.795       8.670       8.423       8.165       8.007    
        7.841       7.698       7.627       7.524       7.366       7.230       7.165       7.105       7.022       6.892    
        6.762       6.655       6.554       6.417       6.132       5.785       5.467       5.220       4.960       4.493    
        3.805       3.139       2.515       1.902       1.364      0.8941      0.5726      0.2990      0.1228       0.000    
  18    10.00       9.971       9.926       9.852       9.743       9.668       9.618       9.554       9.483       9.382    
        9.254       9.146       9.034       8.898       8.768       8.634       8.461       8.219       8.025       7.885    
        7.746       7.622       7.518       7.380       7.257       7.196       7.162       7.118       7.032       6.910    
        6.794       6.685       6.557       6.335       6.043       5.743       5.466       5.242       4.880       4.262    
        3.562       2.858       2.194       1.693       1.265      0.8383      0.4918      0.2473      0.1185       0.000    
  19    10.00       9.964       9.915       9.809       9.700       9.656       9.603       9.525       9.439       9.332    
        9.218       9.118       8.963       8.765       8.617       8.484       8.281       8.060       7.926       7.818    
        7.674       7.528       7.413       7.297       7.223       7.181       7.149       7.103       7.029       6.932    
        6.832       6.707       6.516       6.284       6.023       5.726       5.468       5.150       4.548       3.917    
        3.357       2.632       2.004       1.607       1.183      0.7562      0.4439      0.2517      0.1289       0.000    
  20    10.00       9.956       9.874       9.765       9.687       9.640       9.583       9.500       9.406       9.310    
        9.194       9.046       8.823       8.633       8.505       8.345       8.146       8.023       7.902       7.752    
        7.595       7.461       7.338       7.247       7.190       7.153       7.109       7.069       7.017       6.944    
        6.850       6.707       6.489       6.244       5.969       5.703       5.385       4.822       4.186       3.689    
        3.088       2.424       1.955       1.571       1.143      0.6707      0.3875      0.2620      0.1350       0.000    
  21    10.00       9.927       9.840       9.749       9.673       9.624       9.563       9.467       9.374       9.285    
        9.132       8.913       8.692       8.553       8.414       8.249       8.101       7.987       7.844       7.685    
        7.529       7.396       7.286       7.191       7.121       7.069       7.043       7.023       6.987       6.934    
        6.849       6.671       6.426       6.171       5.888       5.595       5.117       4.538       4.036       3.436    
        2.869       2.348       1.952       1.564      0.9621      0.5425      0.3921      0.2958      0.1418       0.000    
  22    10.00       9.908       9.804       9.724       9.664       9.605       9.520       9.433       9.351       9.229    
        9.037       8.795       8.625       8.502       8.348       8.180       8.040       7.918       7.786       7.633    
        7.478       7.337       7.196       7.060       6.974       6.949       6.954       6.948       6.939       6.902    
        6.799       6.591       6.364       6.088       5.787       5.496       5.003       4.437       3.785       3.208    
        2.799       2.383       1.907       1.259      0.7493      0.5404      0.4108      0.2734      0.1011       0.000    
  23    10.00       9.882       9.781       9.719       9.656       9.569       9.478       9.414       9.312       9.163    
        8.943       8.739       8.616       8.464       8.265       8.098       7.986       7.887       7.762       7.598    
        7.433       7.269       7.071       6.828       6.642       6.681       6.792       6.850       6.874       6.844    
        6.727       6.512       6.276       6.025       5.731       5.393       4.893       4.199       3.552       3.146    
        2.770       2.246       1.567       1.013      0.7368      0.5508      0.3939      0.2323      9.2446E-02   0.000    
  24    10.00       9.865       9.792       9.718       9.630       9.541       9.471       9.400       9.303       9.107    
        8.902       8.751       8.611       8.407       8.188       8.068       7.974       7.877       7.735       7.579    
        7.434       7.229       6.909       6.441       5.850       6.130       6.502       6.720       6.797       6.764    
        6.635       6.432       6.214       5.941       5.632       5.226       4.608       3.961       3.475       3.052    
        2.591       2.010       1.404      0.9817      0.7378      0.5364      0.3592      0.2516      0.1235       0.000    
  25    10.00       9.881       9.807       9.713       9.622       9.541       9.471       9.405       9.261       9.072    
        8.914       8.759       8.575       8.350       8.187       8.082       7.977       7.861       7.731       7.599    
        7.434       7.240       6.787       5.872       4.153       5.509       6.228       6.595       6.729       6.689    
        6.551       6.368       6.143       5.803       5.419       4.913       4.352       3.845       3.425       2.928    
        2.373       1.818       1.309      0.9725      0.7646      0.5573      0.3784      0.2635      0.1640       0.000    
  26    10.00       9.897       9.826       9.728       9.629       9.555       9.481       9.384       9.242       9.108    
        8.957       8.742       8.515       8.333       8.211       8.109       7.989       7.846       7.720       7.610    
        7.476       7.294       6.924       6.291       5.555       5.961       6.410       6.649       6.721       6.620    
        6.449       6.282       6.013       5.650       5.252       4.781       4.170       3.694       3.306       2.709    
        2.085       1.600       1.296       1.062      0.8245      0.6015      0.4124      0.2862      0.1672       0.000    
  27    10.00       9.919       9.831       9.743       9.658       9.570       9.487       9.389       9.270       9.145    
        8.950       8.704       8.504       8.351       8.248       8.128       7.969       7.822       7.727       7.638    
        7.539       7.381       7.121       6.784       6.458       6.494       6.659       6.756       6.705       6.536    
        6.372       6.209       5.927       5.554       5.108       4.494       3.940       3.557       2.980       2.361    
        1.880       1.570       1.341       1.136      0.9013      0.6565      0.4480      0.3150      0.1987       0.000    
  28    10.00       9.924       9.853       9.773       9.690       9.596       9.503       9.408       9.303       9.154    
        8.922       8.704       8.526       8.373       8.261       8.136       8.007       7.872       7.745       7.658    
        7.581       7.473       7.320       7.110       6.942       6.847       6.844       6.813       6.682       6.502    
        6.318       6.122       5.806       5.376       4.829       4.223       3.764       3.242       2.651       2.217    
        1.876       1.613       1.389       1.175      0.9470      0.7164      0.5082      0.3586      0.2049       0.000    
  29    10.00       9.930       9.860       9.797       9.716       9.631       9.540       9.440       9.323       9.121    
        8.903       8.714       8.539       8.406       8.272       8.138       8.020       7.912       7.798       7.691    
        7.609       7.528       7.434       7.320       7.166       7.057       6.952       6.837       6.670       6.433    
        6.220       5.937       5.618       5.102       4.492       3.993       3.548       3.016       2.548       2.233    
        1.957       1.669       1.415       1.210       1.004      0.7575      0.5369      0.3746      0.2077       0.000    
  30    10.00       9.939       9.881       9.826       9.752       9.668       9.585       9.470       9.309       9.122    
        8.898       8.689       8.544       8.406       8.273       8.153       8.055       7.958       7.845       7.727    
        7.634       7.566       7.490       7.411       7.278       7.106       6.964       6.815       6.602       6.354    
        6.050       5.668       5.301       4.816       4.364       3.912       3.444       2.952       2.602       2.317    
        1.990       1.701       1.481       1.247       1.002      0.7837      0.5722      0.3978      0.2235       0.000    
  31    10.00       9.952       9.904       9.851       9.795       9.726       9.630       9.484       9.297       9.099    
        8.879       8.690       8.555       8.416       8.290       8.172       8.075       7.993       7.869       7.752    
        7.666       7.592       7.518       7.396       7.228       7.080       6.946       6.787       6.546       6.226    
        5.810       5.405       5.072       4.713       4.296       3.825       3.358       2.960       2.716       2.444    
        2.081       1.764       1.513       1.276       1.049      0.8242      0.6062      0.4186      0.2167       0.000    
  32    10.00       9.958       9.923       9.877       9.824       9.757       9.653       9.481       9.308       9.118    
        8.889       8.712       8.580       8.430       8.286       8.185       8.101       7.997       7.888       7.775    
        7.671       7.586       7.471       7.306       7.174       7.082       6.942       6.723       6.409       6.028    
        5.619       5.267       4.956       4.631       4.229       3.811       3.446       3.109       2.829       2.517    
        2.182       1.869       1.605       1.334       1.086      0.8960      0.6682      0.4106      0.1833       0.000    
  33    10.00       9.964       9.937       9.897       9.842       9.770       9.631       9.461       9.322       9.147    
        8.933       8.760       8.595       8.416       8.284       8.204       8.125       8.012       7.892       7.766    
        7.653       7.542       7.386       7.249       7.162       7.069       6.837       6.538       6.239       5.914    
        5.536       5.244       4.932       4.549       4.184       3.818       3.524       3.259       2.939       2.596    
        2.307       2.012       1.722       1.442       1.182      0.9697      0.7146      0.4124      0.1792       0.000    
  34    10.00       9.970       9.949       9.915       9.842       9.734       9.604       9.486       9.340       9.165    
        8.976       8.779       8.585       8.405       8.301       8.234       8.141       8.020       7.869       7.734    
        7.609       7.459       7.310       7.202       7.110       6.949       6.686       6.427       6.148       5.786    
        5.464       5.241       4.933       4.570       4.218       3.887       3.611       3.347       3.020       2.711    
        2.454       2.171       1.854       1.575       1.311       1.068      0.7640      0.4638      0.2432       0.000    
  35    10.00       9.975       9.949       9.899       9.808       9.701       9.608       9.504       9.383       9.188    
        8.974       8.768       8.567       8.424       8.335       8.257       8.144       8.005       7.841       7.678    
        7.494       7.344       7.203       7.107       7.009       6.856       6.601       6.316       6.003       5.643    
        5.413       5.175       4.876       4.614       4.324       3.981       3.681       3.462       3.155       2.828    
        2.580       2.290       1.973       1.698       1.424       1.158      0.8756      0.5803      0.2871       0.000    
  36    10.00       9.969       9.926       9.871       9.786       9.686       9.607       9.515       9.382       9.187    
        8.948       8.724       8.584       8.478       8.383       8.272       8.131       7.975       7.777       7.517    
        7.325       7.210       7.100       7.021       6.931       6.747       6.471       6.174       5.806       5.503    
        5.319       5.131       4.881       4.633       4.393       4.089       3.792       3.561       3.288       2.932    
        2.660       2.337       2.021       1.811       1.545       1.249      0.9658      0.6572      0.3215       0.000    
  37    10.00       9.951       9.905       9.849       9.765       9.678       9.587       9.498       9.372       9.142    
        8.890       8.722       8.640       8.532       8.405       8.285       8.089       7.884       7.603       7.329    
        7.230       7.134       7.029       6.939       6.829       6.608       6.343       5.956       5.635       5.451    
        5.300       5.106       4.863       4.671       4.428       4.141       3.910       3.689       3.382       2.991    
        2.635       2.332       2.112       1.895       1.628       1.347       1.064      0.7248      0.3980       0.000    
  38    10.00       9.944       9.883       9.825       9.750       9.666       9.568       9.471       9.323       9.106    
        8.917       8.785       8.679       8.572       8.422       8.205       7.972       7.716       7.400       7.237    
        7.158       7.027       6.906       6.837       6.704       6.476       6.097       5.750       5.593       5.458    
        5.301       5.099       4.883       4.693       4.457       4.198       4.009       3.784       3.393       2.963    
        2.654       2.401       2.183       1.959       1.723       1.437       1.155      0.8382      0.4142       0.000    
  39    10.00       9.927       9.867       9.814       9.742       9.644       9.539       9.438       9.298       9.120    
        8.970       8.867       8.741       8.583       8.338       8.053       7.790       7.485       7.272       7.176    
        7.038       6.884       6.795       6.726       6.597       6.295       5.933       5.740       5.601       5.463    
        5.286       5.098       4.891       4.703       4.525       4.313       4.065       3.793       3.408       3.007    
        2.682       2.421       2.249       2.061       1.795       1.513       1.226      0.8725      0.4088       0.000    
  40    10.00       9.918       9.861       9.806       9.730       9.629       9.526       9.425       9.301       9.150    
        9.025       8.930       8.759       8.493       8.176       7.891       7.613       7.359       7.211       7.075    
        6.912       6.783       6.715       6.621       6.452       6.185       5.952       5.766       5.613       5.470    
        5.298       5.097       4.904       4.748       4.593       4.379       4.093       3.808       3.417       2.988    
        2.683       2.476       2.287       2.127       1.847       1.538       1.276      0.8750      0.4073       0.000    
  41    10.00       9.925       9.858       9.791       9.709       9.629       9.543       9.448       9.324       9.185    
        9.064       8.940       8.705       8.380       8.055       7.791       7.520       7.282       7.133       6.981    
        6.816       6.707       6.626       6.516       6.346       6.153       6.001       5.822       5.633       5.466    
        5.302       5.123       4.939       4.804       4.639       4.426       4.140       3.747       3.299       2.968    
        2.747       2.547       2.352       2.128       1.837       1.541       1.317      0.9322      0.4227       0.000    
  42    10.00       9.924       9.848       9.789       9.728       9.654       9.561       9.452       9.345       9.237    
        9.074       8.851       8.576       8.265       7.964       7.724       7.458       7.230       7.066       6.894    
        6.741       6.644       6.552       6.454       6.305       6.176       6.049       5.846       5.634       5.485    
        5.353       5.157       4.961       4.830       4.678       4.451       4.099       3.636       3.226       2.980    
        2.814       2.635       2.386       2.088       1.809       1.578       1.345      0.9833      0.4851       0.000    
  43    10.00       9.917       9.853       9.802       9.753       9.681       9.589       9.485       9.363       9.187    
        8.969       8.738       8.482       8.159       7.890       7.668       7.429       7.196       6.989       6.827    
        6.693       6.595       6.519       6.440       6.316       6.185       6.056       5.845       5.662       5.553    
        5.392       5.182       4.994       4.859       4.681       4.387       3.981       3.543       3.244       3.056    
        2.878       2.673       2.367       2.062       1.815       1.592       1.391      0.9972      0.4557       0.000    
  44    10.00       9.917       9.860       9.814       9.756       9.701       9.624       9.481       9.296       9.090    
        8.906       8.673       8.363       8.094       7.881       7.624       7.363       7.113       6.908       6.767    
        6.669       6.587       6.513       6.432       6.326       6.192       6.019       5.845       5.722       5.593    
        5.449       5.266       5.050       4.845       4.628       4.299       3.874       3.513       3.282       3.100    
        2.921       2.677       2.382       2.118       1.854       1.614       1.369      0.9003      0.4140       0.000    
  45    10.00       9.926       9.873       9.813       9.756       9.707       9.579       9.408       9.219       9.042    
        8.891       8.577       8.256       8.060       7.829       7.543       7.258       7.027       6.862       6.752    
        6.679       6.602       6.521       6.426       6.309       6.177       6.032       5.899       5.791       5.657    
        5.490       5.301       5.078       4.820       4.560       4.207       3.808       3.524       3.348       3.161    
        2.922       2.643       2.390       2.149       1.915       1.676       1.278      0.8000      0.4026       0.000    
  46    10.00       9.940       9.883       9.813       9.747       9.651       9.510       9.380       9.222       9.032    
        8.779       8.480       8.223       7.975       7.727       7.451       7.186       7.016       6.881       6.776    
        6.702       6.628       6.524       6.406       6.293       6.183       6.068       5.947       5.839       5.720    
        5.570       5.370       5.118       4.811       4.441       4.074       3.779       3.578       3.395       3.200    
        2.917       2.620       2.368       2.177       1.954       1.643       1.190      0.7641      0.3767       0.000    
  47    10.00       9.951       9.897       9.827       9.713       9.586       9.466       9.364       9.218       8.967    
        8.664       8.390       8.166       7.959       7.696       7.395       7.162       7.001       6.892       6.805    
        6.724       6.636       6.527       6.404       6.295       6.208       6.114       5.995       5.870       5.754    
        5.622       5.455       5.120       4.690       4.329       4.066       3.819       3.646       3.484       3.213    
        2.869       2.555       2.327       2.195       1.948       1.567       1.125      0.7370      0.3724       0.000    
  48    10.00       9.956       9.900       9.795       9.678       9.569       9.448       9.344       9.196       8.913    
        8.582       8.353       8.169       7.915       7.609       7.338       7.163       7.001       6.893       6.824    
        6.742       6.636       6.519       6.406       6.317       6.248       6.164       6.032       5.887       5.762    
        5.625       5.423       5.074       4.717       4.396       4.105       3.885       3.708       3.501       3.157    
        2.787       2.545       2.363       2.130       1.806       1.468       1.089      0.7423      0.3930       0.000    
  49    10.00       9.953       9.869       9.767       9.679       9.562       9.444       9.334       9.148       8.848    
        8.552       8.333       8.103       7.846       7.616       7.363       7.119       6.969       6.903       6.838    
        6.760       6.639       6.503       6.405       6.337       6.286       6.189       6.037       5.885       5.771    
        5.622       5.357       5.050       4.797       4.528       4.207       3.922       3.703       3.459       3.091    
        2.793       2.581       2.330       1.994       1.707       1.402       1.071      0.7545      0.3842       0.000    
  50    10.00       9.941       9.848       9.755       9.684       9.574       9.444       9.304       9.103       8.866    
        8.566       8.273       8.034       7.829       7.644       7.361       7.082       6.969       6.911       6.848    
        6.773       6.636       6.491       6.402       6.348       6.302       6.193       6.030       5.884       5.769    
        5.606       5.327       5.091       4.874       4.582       4.263       3.974       3.684       3.333       3.007    
        2.850       2.626       2.260       1.923       1.682       1.392       1.104      0.7369      0.3027       0.000    

 HEAD WILL BE SAVED ON UNIT   51 AT END OF TIME STEP   5, STRESS PERIOD    2

 DRAWDOWN WILL BE SAVED ON UNIT   52 AT END OF TIME STEP   5, STRESS PERIOD    2
1
  VOLUMETRIC BUDGET FOR ENTIRE MODEL AT END OF TIME STEP  5 IN STRESS PERIOD   2
  ------------------------------------------------------------------------------

     CUMULATIVE VOLUMES      L**3       RATES FOR THIS TIME STEP      L**3/T
     ------------------                 ------------------------

           IN:                                      IN:
           ---                                      ---
             STORAGE =        2500.0046               STORAGE =         499.9981
       CONSTANT HEAD =        3239.3582         CONSTANT HEAD =         539.8948
               WELLS =           0.0000                 WELLS =           0.0000

            TOTAL IN =        5739.3628              TOTAL IN =        1039.8929

          OUT:                                     OUT:
          ----                                     ----
             STORAGE =       8.4932E-03               STORAGE =       5.0302E-04
       CONSTANT HEAD =        3239.3540         CONSTANT HEAD =         539.8923
               WELLS =        2500.0000                 WELLS =         500.0000

           TOTAL OUT =        5739.3623             TOTAL OUT =        1039.8928

            IN - OUT =       4.8828E-04              IN - OUT =       1.2207E-04

 PERCENT DISCREPANCY =           0.00     PERCENT DISCREPANCY =           0.00






          TIME SUMMARY AT END OF TIME STEP   5 IN STRESS PERIOD    2
                    SECONDS     MINUTES      HOURS       DAYS        YEARS
                    -----------------------------------------------------------
   TIME STEP LENGTH  86400.      1440.0      24.000      1.0000     2.73785E-03
 STRESS PERIOD TIME 4.32000E+05  7200.0      120.00      5.0000     1.36893E-02
         TOTAL TIME 5.18400E+05  8640.0      144.00      6.0000     1.64271E-02
1
 
 SOLVING FOR HEAD 

 OUTPUT CONTROL FOR STRESS PERIOD    2   TIME STEP   6
    SAVE HEAD FOR ALL LAYERS
    SAVE DRAWDOWN FOR ALL LAYERS
    SAVE BUDGET
    PRINT HEAD FOR ALL LAYERS
    PRINT BUDGET
 UBDSV1 SAVING "         STORAGE" ON UNIT  53 AT TIME STEP  6, STRESS PERIOD   2
 UBDSV2 SAVING "   CONSTANT HEAD" ON UNIT  53 AT TIME STEP  6, STRESS PERIOD   2
 UBDSV1 SAVING "FLOW RIGHT FACE " ON UNIT  53 AT TIME STEP  6, STRESS PERIOD   2
 UBDSV1 SAVING "FLOW FRONT FACE " ON UNIT  53 AT TIME STEP  6, STRESS PERIOD   2
1
              HEAD IN LAYER   1 AT END OF TIME STEP   6 IN STRESS PERIOD    2
  ---------------------------------------------------------------------------

            1           2           3           4           5           6           7           8           9          10
           11          12          13          14          15          16          17          18          19          20
           21          22          23          24          25          26          27          28          29          30
           31          32          33          34          35          36          37          38          39          40
           41          42          43          44          45          46          47          48          49          50
 ........................................................................................................................
   1    10.00       9.960       9.905       9.850       9.804       9.748       9.694       9.637       9.560       9.498    
        9.461       9.424       9.383       9.342       9.276       9.203       9.124       9.062       9.034       9.002    
        8.963       8.929       8.893       8.847       8.783       8.671       8.536       8.405       8.253       8.102    
        7.888       7.549       7.151       6.732       6.263       5.831       5.465       5.124       4.659       4.155    
        3.725       3.300       2.713       2.157       1.768       1.377       1.050      0.8388      0.5562       0.000    
   2    10.00       9.959       9.910       9.855       9.807       9.755       9.694       9.620       9.546       9.498    
        9.465       9.432       9.400       9.349       9.273       9.198       9.126       9.065       9.035       8.999    
        8.959       8.933       8.905       8.856       8.783       8.676       8.541       8.403       8.261       8.110    
        7.878       7.529       7.111       6.638       6.165       5.748       5.421       5.087       4.616       4.143    
        3.709       3.197       2.667       2.226       1.839       1.475       1.101      0.7967      0.4253       0.000    
   3    10.00       9.956       9.908       9.858       9.809       9.750       9.675       9.604       9.557       9.513    
        9.475       9.446       9.415       9.366       9.291       9.197       9.122       9.071       9.033       8.998    
        8.964       8.936       8.908       8.848       8.770       8.662       8.534       8.431       8.280       8.101    
        7.803       7.399       6.957       6.500       6.063       5.673       5.380       5.037       4.529       4.069    
        3.707       3.239       2.749       2.325       1.922       1.554       1.112      0.6836      0.3006       0.000    
   4    10.00       9.959       9.911       9.857       9.796       9.728       9.656       9.604       9.564       9.522    
        9.489       9.465       9.430       9.378       9.309       9.207       9.123       9.076       9.035       9.002    
        8.964       8.931       8.896       8.833       8.754       8.651       8.526       8.411       8.295       8.070    
        7.688       7.199       6.729       6.381       6.051       5.670       5.292       4.859       4.431       4.093    
        3.769       3.353       2.860       2.440       2.017       1.571       1.061      0.6072      0.2828       0.000    
   5    10.00       9.956       9.906       9.843       9.781       9.718       9.655       9.610       9.569       9.533    
        9.504       9.478       9.438       9.378       9.298       9.205       9.133       9.082       9.041       8.996    
        8.953       8.919       8.875       8.809       8.735       8.619       8.496       8.397       8.279       7.998    
        7.504       6.973       6.587       6.320       6.019       5.630       5.201       4.774       4.466       4.178    
        3.883       3.450       2.935       2.567       2.135       1.551      0.9654      0.5604      0.2819       0.000    
   6    10.00       9.946       9.886       9.837       9.778       9.713       9.660       9.620       9.577       9.544    
        9.517       9.486       9.434       9.365       9.296       9.220       9.142       9.081       9.029       8.978    
        8.940       8.905       8.864       8.795       8.687       8.577       8.484       8.376       8.183       7.785    
        7.244       6.770       6.475       6.270       6.024       5.599       5.131       4.785       4.557       4.302    
        4.011       3.618       3.103       2.644       2.109       1.484      0.8655      0.4928      0.2753       0.000    
   7    10.00       9.930       9.874       9.827       9.770       9.723       9.673       9.631       9.595       9.560    
        9.525       9.480       9.418       9.351       9.289       9.227       9.142       9.061       9.006       8.963    
        8.927       8.889       8.846       8.759       8.649       8.558       8.457       8.292       7.977       7.481    
        6.968       6.599       6.412       6.248       5.938       5.524       5.210       4.901       4.648       4.467    
        4.170       3.760       3.207       2.612       1.953       1.236      0.7252      0.5003      0.2533       0.000    
   8    10.00       9.926       9.874       9.823       9.773       9.731       9.688       9.648       9.613       9.580    
        9.529       9.464       9.400       9.341       9.284       9.208       9.110       9.033       8.992       8.951    
        8.909       8.876       8.811       8.721       8.624       8.517       8.334       8.077       7.661       7.236    
        6.847       6.546       6.397       6.198       5.855       5.531       5.268       5.038       4.827       4.609    
        4.298       3.790       3.151       2.473       1.724       1.115      0.7674      0.4907      0.2260       0.000    
   9    10.00       9.930       9.871       9.821       9.785       9.750       9.709       9.669       9.629       9.592    
        9.529       9.450       9.384       9.325       9.257       9.174       9.086       9.018       8.974       8.933    
        8.895       8.844       8.759       8.677       8.581       8.440       8.182       7.802       7.397       7.089    
        6.778       6.544       6.376       6.113       5.794       5.538       5.346       5.162       4.979       4.738    
        4.350       3.818       3.138       2.380       1.690       1.154      0.7827      0.4866      0.2412       0.000    
  10    10.00       9.928       9.869       9.828       9.796       9.763       9.726       9.692       9.646       9.587    
        9.512       9.434       9.370       9.306       9.236       9.142       9.054       9.000       8.960       8.918    
        8.879       8.802       8.711       8.624       8.500       8.302       7.936       7.522       7.193       6.958    
        6.762       6.559       6.343       6.071       5.789       5.584       5.429       5.273       5.065       4.784    
        4.366       3.782       3.055       2.377       1.830       1.322      0.8379      0.5165      0.2721       0.000    
  11    10.00       9.919       9.874       9.839       9.807       9.778       9.745       9.700       9.637       9.572    
        9.498       9.421       9.361       9.279       9.185       9.104       9.040       8.989       8.949       8.904    
        8.838       8.744       8.623       8.500       8.300       8.016       7.692       7.398       7.117       6.932    
        6.764       6.511       6.260       6.055       5.856       5.689       5.529       5.325       5.077       4.748    
        4.355       3.837       3.097       2.477       1.991       1.502      0.9647      0.5113      0.2052       0.000    
  12    10.00       9.926       9.881       9.845       9.819       9.788       9.752       9.692       9.619       9.553    
        9.483       9.409       9.329       9.232       9.156       9.087       9.022       8.977       8.931       8.866    
        8.751       8.600       8.438       8.266       8.027       7.806       7.607       7.319       7.071       6.904    
        6.717       6.489       6.271       6.087       5.943       5.788       5.591       5.358       5.059       4.711    
        4.322       3.815       3.135       2.579       2.138       1.609       1.014      0.4831      0.1607       0.000    
  13    10.00       9.943       9.901       9.862       9.828       9.793       9.742       9.669       9.594       9.529    
        9.457       9.385       9.303       9.205       9.120       9.052       9.006       8.954       8.892       8.759    
        8.563       8.385       8.212       8.005       7.817       7.699       7.471       7.211       7.060       6.902    
        6.689       6.477       6.306       6.156       6.026       5.880       5.647       5.350       5.054       4.692    
        4.302       3.784       3.081       2.562       2.152       1.573      0.9440      0.4368      0.1262       0.000    
  14    10.00       9.958       9.921       9.880       9.839       9.786       9.714       9.638       9.571       9.499    
        9.429       9.363       9.269       9.164       9.088       9.033       8.966       8.895       8.765       8.545    
        8.342       8.182       7.965       7.791       7.693       7.563       7.338       7.170       7.033       6.876    
        6.677       6.511       6.387       6.241       6.095       5.934       5.670       5.339       5.019       4.649    
        4.230       3.605       2.944       2.524       2.023       1.468      0.9315      0.3992      0.1027       0.000    
  15    10.00       9.967       9.929       9.889       9.842       9.764       9.675       9.609       9.544       9.475    
        9.423       9.348       9.228       9.117       9.051       8.966       8.883       8.797       8.592       8.341    
        8.172       7.956       7.754       7.675       7.600       7.452       7.265       7.101       6.987       6.854    
        6.697       6.573       6.456       6.323       6.158       5.954       5.646       5.270       4.934       4.592    
        4.139       3.529       2.955       2.390       1.784       1.288      0.8013      0.3519      0.1056       0.000    
  16    10.00       9.976       9.939       9.892       9.820       9.725       9.649       9.595       9.537       9.468    
        9.398       9.296       9.164       9.061       8.972       8.877       8.820       8.662       8.376       8.149    
        7.975       7.762       7.670       7.608       7.500       7.325       7.170       7.068       6.985       6.868    
        6.730       6.617       6.517       6.371       6.166       5.914       5.546       5.205       4.937       4.566    
        4.049       3.392       2.735       2.109       1.595       1.105      0.6830      0.3342      0.1127       0.000    
  17    10.00       9.976       9.938       9.876       9.787       9.693       9.629       9.581       9.518       9.442    
        9.333       9.207       9.093       8.985       8.880       8.793       8.667       8.417       8.154       7.992    
        7.821       7.674       7.601       7.497       7.334       7.196       7.133       7.076       6.999       6.874    
        6.748       6.645       6.547       6.411       6.129       5.784       5.467       5.219       4.960       4.493    
        3.805       3.139       2.515       1.902       1.364      0.8941      0.5726      0.2990      0.1228       0.000    
  18    10.00       9.971       9.926       9.852       9.743       9.668       9.618       9.554       9.483       9.382    
        9.254       9.145       9.033       8.897       8.765       8.630       8.455       8.207       8.008       7.862    
        7.718       7.590       7.482       7.341       7.216       7.157       7.124       7.084       7.004       6.889    
        6.778       6.673       6.549       6.330       6.041       5.742       5.465       5.241       4.880       4.262    
        3.562       2.858       2.194       1.693       1.265      0.8383      0.4918      0.2473      0.1185       0.000    
  19    10.00       9.964       9.915       9.809       9.700       9.656       9.603       9.525       9.439       9.332    
        9.217       9.118       8.962       8.763       8.613       8.478       8.270       8.042       7.902       7.789    
        7.638       7.486       7.368       7.249       7.175       7.137       7.107       7.064       6.995       6.906    
        6.812       6.693       6.508       6.280       6.021       5.725       5.468       5.150       4.548       3.917    
        3.357       2.632       2.004       1.607       1.183      0.7562      0.4439      0.2517      0.1289       0.000    
  20    10.00       9.956       9.874       9.765       9.687       9.640       9.583       9.500       9.406       9.310    
        9.194       9.046       8.821       8.630       8.500       8.336       8.130       8.002       7.875       7.717    
        7.551       7.412       7.286       7.193       7.137       7.101       7.060       7.024       6.977       6.912    
        6.826       6.692       6.481       6.241       5.967       5.702       5.385       4.822       4.185       3.689    
        3.088       2.424       1.955       1.571       1.143      0.6707      0.3875      0.2620      0.1350       0.000    
  21    10.00       9.927       9.840       9.749       9.673       9.624       9.563       9.467       9.374       9.284    
        9.132       8.912       8.690       8.549       8.407       8.236       8.082       7.962       7.811       7.642    
        7.478       7.340       7.226       7.130       7.060       7.009       6.985       6.970       6.939       6.895    
        6.821       6.656       6.419       6.168       5.886       5.595       5.117       4.538       4.036       3.436    
        2.869       2.348       1.952       1.564      0.9621      0.5425      0.3921      0.2958      0.1418       0.000    
  22    10.00       9.908       9.804       9.724       9.664       9.605       9.520       9.433       9.351       9.229    
        9.037       8.794       8.622       8.497       8.339       8.165       8.017       7.888       7.747       7.584    
        7.420       7.273       7.127       6.988       6.902       6.878       6.886       6.886       6.884       6.857    
        6.769       6.575       6.356       6.085       5.786       5.496       5.002       4.437       3.785       3.208    
        2.799       2.383       1.907       1.259      0.7493      0.5404      0.4108      0.2734      0.1011       0.000    
  23    10.00       9.882       9.781       9.719       9.656       9.569       9.478       9.414       9.312       9.162    
        8.942       8.737       8.613       8.458       8.253       8.078       7.960       7.854       7.720       7.545    
        7.371       7.200       6.994       6.743       6.554       6.595       6.712       6.778       6.812       6.796    
        6.696       6.495       6.268       6.021       5.729       5.393       4.893       4.199       3.552       3.146    
        2.770       2.246       1.567       1.013      0.7368      0.5508      0.3939      0.2323      9.2446E-02   0.000    
  24    10.00       9.865       9.792       9.718       9.630       9.541       9.471       9.400       9.303       9.106    
        8.901       8.749       8.608       8.400       8.173       8.046       7.947       7.843       7.691       7.525    
        7.371       7.156       6.824       6.344       5.743       6.022       6.402       6.636       6.729       6.714    
        6.605       6.416       6.206       5.937       5.630       5.226       4.608       3.961       3.475       3.052    
        2.591       2.010       1.404      0.9817      0.7378      0.5364      0.3592      0.2516      0.1235       0.000    
  25    10.00       9.881       9.807       9.713       9.622       9.541       9.471       9.405       9.261       9.071    
        8.913       8.758       8.571       8.341       8.172       8.061       7.950       7.825       7.686       7.545    
        7.370       7.166       6.696       5.763       4.029       5.385       6.112       6.497       6.657       6.643    
        6.524       6.353       6.136       5.800       5.418       4.913       4.352       3.845       3.425       2.928    
        2.373       1.818       1.309      0.9725      0.7646      0.5573      0.3784      0.2635      0.1640       0.000    
  26    10.00       9.897       9.826       9.728       9.629       9.555       9.481       9.384       9.242       9.108    
        8.957       8.740       8.511       8.324       8.198       8.091       7.963       7.811       7.675       7.558    
        7.415       7.223       6.835       6.181       5.430       5.830       6.287       6.549       6.655       6.584    
        6.429       6.271       6.008       5.648       5.252       4.780       4.170       3.694       3.306       2.709    
        2.085       1.600       1.296       1.062      0.8245      0.6015      0.4124      0.2862      0.1672       0.000    
  27    10.00       9.919       9.831       9.743       9.658       9.570       9.487       9.389       9.270       9.145    
        8.949       8.702       8.500       8.343       8.237       8.112       7.944       7.786       7.684       7.589    
        7.483       7.315       7.039       6.686       6.342       6.374       6.548       6.673       6.657       6.511    
        6.359       6.201       5.924       5.552       5.107       4.494       3.940       3.557       2.980       2.361    
        1.880       1.570       1.341       1.136      0.9013      0.6565      0.4480      0.3150      0.1987       0.000    
  28    10.00       9.924       9.853       9.773       9.690       9.596       9.503       9.408       9.303       9.154    
        8.921       8.702       8.522       8.366       8.251       8.122       7.985       7.841       7.705       7.612    
        7.530       7.415       7.251       7.026       6.847       6.747       6.758       6.756       6.648       6.483    
        6.308       6.116       5.804       5.375       4.829       4.223       3.764       3.242       2.651       2.217    
        1.876       1.613       1.389       1.175      0.9470      0.7164      0.5082      0.3586      0.2049       0.000    
  29    10.00       9.930       9.860       9.797       9.715       9.631       9.540       9.440       9.322       9.121    
        8.902       8.712       8.535       8.400       8.263       8.125       8.002       7.887       7.764       7.650    
        7.563       7.477       7.376       7.254       7.090       6.985       6.897       6.798       6.648       6.422    
        6.214       5.934       5.617       5.101       4.492       3.993       3.548       3.016       2.548       2.233    
        1.957       1.669       1.415       1.210       1.004      0.7575      0.5369      0.3746      0.2077       0.000    
  30    10.00       9.939       9.881       9.826       9.752       9.668       9.585       9.470       9.309       9.122    
        8.897       8.687       8.541       8.401       8.266       8.142       8.040       7.938       7.818       7.694    
        7.595       7.523       7.442       7.359       7.232       7.068       6.937       6.794       6.591       6.348    
        6.048       5.667       5.301       4.816       4.364       3.912       3.444       2.952       2.602       2.317    
        1.990       1.701       1.481       1.247       1.002      0.7837      0.5722      0.3978      0.2235       0.000    
  31    10.00       9.952       9.904       9.851       9.795       9.726       9.630       9.483       9.296       9.098    
        8.878       8.689       8.552       8.412       8.284       8.164       8.064       7.978       7.849       7.727    
        7.637       7.559       7.483       7.365       7.207       7.064       6.932       6.776       6.540       6.224    
        5.809       5.405       5.072       4.713       4.296       3.825       3.358       2.960       2.716       2.444    
        2.081       1.764       1.513       1.276       1.049      0.8242      0.6062      0.4186      0.2167       0.000    
  32    10.00       9.958       9.923       9.877       9.824       9.757       9.653       9.481       9.308       9.118    
        8.888       8.711       8.579       8.427       8.282       8.179       8.092       7.986       7.875       7.756    
        7.650       7.563       7.450       7.292       7.163       7.072       6.934       6.718       6.406       6.027    
        5.619       5.267       4.956       4.630       4.229       3.811       3.446       3.109       2.829       2.517    
        2.182       1.869       1.605       1.334       1.086      0.8960      0.6682      0.4106      0.1833       0.000    
  33    10.00       9.964       9.937       9.897       9.842       9.770       9.631       9.461       9.322       9.147    
        8.933       8.759       8.594       8.413       8.281       8.199       8.119       8.005       7.882       7.754    
        7.638       7.527       7.374       7.240       7.154       7.062       6.833       6.536       6.238       5.914    
        5.536       5.244       4.932       4.549       4.184       3.818       3.524       3.259       2.939       2.596    
        2.307       2.012       1.722       1.442       1.182      0.9697      0.7146      0.4124      0.1792       0.000    
  34    10.00       9.970       9.949       9.915       9.842       9.734       9.604       9.486       9.340       9.164    
        8.976       8.779       8.584       8.404       8.299       8.230       8.137       8.015       7.862       7.727    
        7.601       7.451       7.303       7.196       7.105       6.946       6.685       6.427       6.147       5.786    
        5.464       5.241       4.933       4.570       4.218       3.887       3.611       3.347       3.020       2.711    
        2.454       2.171       1.854       1.575       1.311       1.068      0.7640      0.4638      0.2432       0.000    
  35    10.00       9.975       9.949       9.899       9.808       9.701       9.608       9.504       9.383       9.188    
        8.974       8.768       8.567       8.423       8.333       8.255       8.141       8.001       7.837       7.673    
        7.490       7.340       7.199       7.104       7.007       6.854       6.600       6.315       6.003       5.643    
        5.413       5.175       4.876       4.614       4.324       3.981       3.681       3.462       3.155       2.828    
        2.580       2.290       1.973       1.698       1.424       1.158      0.8756      0.5803      0.2871       0.000    
  36    10.00       9.969       9.926       9.871       9.786       9.686       9.607       9.515       9.382       9.187    
        8.948       8.724       8.583       8.477       8.382       8.271       8.129       7.973       7.775       7.515    
        7.323       7.209       7.099       7.019       6.929       6.747       6.471       6.174       5.806       5.503    
        5.319       5.131       4.881       4.633       4.393       4.089       3.792       3.561       3.288       2.932    
        2.660       2.337       2.021       1.811       1.545       1.249      0.9658      0.6572      0.3215       0.000    
  37    10.00       9.951       9.905       9.849       9.765       9.678       9.587       9.498       9.372       9.142    
        8.890       8.721       8.640       8.532       8.404       8.284       8.089       7.883       7.602       7.328    
        7.229       7.133       7.028       6.938       6.828       6.608       6.343       5.956       5.635       5.451    
        5.300       5.106       4.863       4.671       4.428       4.141       3.910       3.689       3.382       2.991    
        2.635       2.332       2.112       1.895       1.628       1.347       1.064      0.7248      0.3980       0.000    
  38    10.00       9.944       9.883       9.825       9.750       9.666       9.568       9.471       9.323       9.106    
        8.917       8.785       8.678       8.571       8.422       8.204       7.971       7.716       7.400       7.236    
        7.157       7.026       6.906       6.836       6.703       6.476       6.097       5.750       5.593       5.458    
        5.301       5.099       4.883       4.693       4.457       4.198       4.009       3.784       3.393       2.963    
        2.654       2.401       2.183       1.959       1.723       1.437       1.155      0.8382      0.4142       0.000    
  39    10.00       9.927       9.867       9.814       9.742       9.644       9.539       9.438       9.298       9.120    
        8.970       8.867       8.741       8.583       8.337       8.052       7.790       7.485       7.272       7.176    
        7.038       6.884       6.795       6.726       6.597       6.295       5.933       5.740       5.601       5.463    
        5.286       5.098       4.891       4.703       4.525       4.313       4.065       3.793       3.408       3.007    
        2.682       2.421       2.249       2.061       1.795       1.513       1.226      0.8725      0.4088       0.000    
  40    10.00       9.918       9.861       9.806       9.730       9.629       9.526       9.425       9.301       9.150    
        9.025       8.930       8.759       8.493       8.176       7.891       7.613       7.359       7.211       7.075    
        6.911       6.783       6.715       6.621       6.452       6.185       5.952       5.766       5.613       5.470    
        5.298       5.097       4.904       4.748       4.593       4.379       4.093       3.808       3.417       2.988    
        2.683       2.476       2.287       2.127       1.847       1.538       1.276      0.8750      0.4073       0.000    
  41    10.00       9.925       9.858       9.791       9.709       9.629       9.543       9.448       9.324       9.185    
        9.064       8.940       8.704       8.380       8.055       7.791       7.520       7.282       7.133       6.981    
        6.816       6.707       6.626       6.516       6.345       6.153       6.001       5.822       5.633       5.466    
        5.302       5.123       4.939       4.804       4.639       4.426       4.140       3.747       3.299       2.968    
        2.747       2.547       2.352       2.128       1.837       1.541       1.317      0.9322      0.4227       0.000    
  42    10.00       9.924       9.848       9.789       9.728       9.654       9.561       9.452       9.345       9.237    
        9.074       8.851       8.576       8.265       7.964       7.724       7.458       7.230       7.066       6.894    
        6.741       6.644       6.552       6.454       6.305       6.176       6.049       5.846       5.634       5.485    
        5.353       5.157       4.961       4.830       4.678       4.451       4.099       3.636       3.226       2.980    
        2.814       2.635       2.386       2.088       1.809       1.578       1.345      0.9833      0.4851       0.000    
  43    10.00       9.917       9.853       9.802       9.753       9.681       9.589       9.485       9.363       9.187    
        8.969       8.738       8.482       8.159       7.890       7.668       7.429       7.196       6.989       6.827    
        6.693       6.595       6.519       6.440       6.316       6.185       6.056       5.845       5.662       5.553    
        5.392       5.182       4.994       4.859       4.681       4.387       3.981       3.543       3.244       3.056    
        2.878       2.673       2.367       2.062       1.815       1.592       1.391      0.9972      0.4557       0.000    
  44    10.00       9.917       9.860       9.814       9.756       9.701       9.624       9.481       9.296       9.090    
        8.906       8.673       8.363       8.094       7.881       7.624       7.363       7.113       6.908       6.767    
        6.669       6.587       6.513       6.432       6.326       6.192       6.019       5.845       5.722       5.593    
        5.449       5.266       5.050       4.845       4.628       4.299       3.874       3.513       3.282       3.100    
        2.921       2.677       2.382       2.118       1.854       1.614       1.369      0.9003      0.4140       0.000    
  45    10.00       9.926       9.873       9.813       9.756       9.707       9.579       9.408       9.219       9.042    
        8.891       8.577       8.256       8.060       7.829       7.543       7.258       7.027       6.862       6.752    
        6.679       6.602       6.521       6.426       6.309       6.177       6.032       5.899       5.791       5.657    
        5.490       5.301       5.078       4.820       4.560       4.207       3.808       3.524       3.348       3.161    
        2.922       2.643       2.390       2.149       1.915       1.676       1.278      0.8000      0.4026       0.000    
  46    10.00       9.940       9.883       9.813       9.747       9.651       9.510       9.380       9.222       9.032    
        8.779       8.480       8.223       7.975       7.727       7.451       7.186       7.016       6.881       6.776    
        6.702       6.628       6.524       6.406       6.293       6.183       6.068       5.947       5.839       5.720    
        5.570       5.370       5.118       4.811       4.441       4.074       3.779       3.578       3.395       3.200    
        2.917       2.620       2.368       2.177       1.954       1.643       1.190      0.7641      0.3767       0.000    
  47    10.00       9.951       9.897       9.827       9.713       9.586       9.466       9.364       9.218       8.967    
        8.664       8.390       8.166       7.959       7.696       7.395       7.162       7.001       6.892       6.805    
        6.724       6.636       6.527       6.404       6.295       6.208       6.114       5.995       5.870       5.754    
        5.622       5.455       5.120       4.690       4.329       4.066       3.819       3.646       3.484       3.213    
        2.869       2.555       2.327       2.195       1.948       1.567       1.125      0.7370      0.3724       0.000    
  48    10.00       9.956       9.900       9.795       9.678       9.569       9.448       9.344       9.196       8.913    
        8.582       8.353       8.169       7.915       7.609       7.338       7.163       7.001       6.893       6.824    
        6.742       6.636       6.519       6.406       6.317       6.248       6.164       6.032       5.887       5.762    
        5.625       5.423       5.074       4.717       4.396       4.105       3.885       3.708       3.501       3.157    
        2.787       2.545       2.363       2.130       1.806       1.468       1.089      0.7423      0.3930       0.000    
  49    10.00       9.953       9.869       9.767       9.679       9.562       9.444       9.334       9.148       8.848    
        8.552       8.333       8.103       7.846       7.616       7.363       7.119       6.969       6.903       6.838    
        6.760       6.639       6.503       6.405       6.337       6.286       6.189       6.037       5.885       5.771    
        5.622       5.357       5.050       4.797       4.528       4.207       3.922       3.703       3.459       3.091    
        2.793       2.581       2.330       1.994       1.707       1.402       1.071      0.7545      0.3842       0.000    
  50    10.00       9.941       9.848       9.755       9.684       9.574       9.444       9.304       9.103       8.866    
        8.566       8.273       8.034       7.829       7.644       7.361       7.082       6.969       6.911       6.848    
        6.773       6.636       6.491       6.402       6.348       6.302       6.193       6.030       5.884       5.769    
        5.606       5.327       5.091       4.874       4.582       4.263       3.974       3.684       3.333       3.007    
        2.850       2.626       2.260       1.923       1.682       1.392       1.104      0.7369      0.3027       0.000    

 HEAD WILL BE SAVED ON UNIT   51 AT END OF TIME STEP   6, STRESS PERIOD    2

 DRAWDOWN WILL BE SAVED ON UNIT   52 AT END OF TIME STEP   6, STRESS PERIOD    2
1
  VOLUMETRIC BUDGET FOR ENTIRE MODEL AT END OF TIME STEP  6 IN STRESS PERIOD   2
  ------------------------------------------------------------------------------

     CUMULATIVE VOLUMES      L**3       RATES FOR THIS TIME STEP      L**3/T
     ------------------                 ------------------------

           IN:                                      IN:
           ---                                      ---
             STORAGE =        2999.9983               STORAGE =         499.9937
       CONSTANT HEAD =        3779.2568         CONSTANT HEAD =         539.8986
               WELLS =           0.0000                 WELLS =           0.0000

            TOTAL IN =        6779.2549              TOTAL IN =        1039.8923

          OUT:                                     OUT:
          ----                                     ----
             STORAGE =       8.7787E-03               STORAGE =       2.8545E-04
       CONSTANT HEAD =        3779.2463         CONSTANT HEAD =         539.8923
               WELLS =        3000.0000                 WELLS =         500.0000

           TOTAL OUT =        6779.2549             TOTAL OUT =        1039.8926

            IN - OUT =           0.0000              IN - OUT =      -2.4414E-04

 PERCENT DISCREPANCY =           0.00     PERCENT DISCREPANCY =           0.00






          TIME SUMMARY AT END OF TIME STEP   6 IN STRESS PERIOD    2
                    SECONDS     MINUTES      HOURS       DAYS        YEARS
                    -----------------------------------------------------------
   TIME STEP LENGTH  86400.      1440.0      24.000      1.0000     2.73785E-03
 STRESS PERIOD TIME 5.18400E+05  8640.0      144.00      6.0000     1.64271E-02
         TOTAL TIME 6.04800E+05  10080.      168.00      7.0000     1.91650E-02
1
 
 SOLVING FOR HEAD 

 OUTPUT CONTROL FOR STRESS PERIOD    2   TIME STEP   7
    SAVE HEAD FOR ALL LAYERS
    SAVE DRAWDOWN FOR ALL LAYERS
    SAVE BUDGET
    PRINT HEAD FOR ALL LAYERS
    PRINT BUDGET
 UBDSV1 SAVING "         STORAGE" ON UNIT  53 AT TIME STEP  7, STRESS PERIOD   2
 UBDSV2 SAVING "   CONSTANT HEAD" ON UNIT  53 AT TIME STEP  7, STRESS PERIOD   2
 UBDSV1 SAVING "FLOW RIGHT FACE " ON UNIT  53 AT TIME STEP  7, STRESS PERIOD   2
 UBDSV1 SAVING "FLOW FRONT FACE " ON UNIT  53 AT TIME STEP  7, STRESS PERIOD   2
1
              HEAD IN LAYER   1 AT END OF TIME STEP   7 IN STRESS PERIOD    2
  ---------------------------------------------------------------------------

            1           2           3           4           5           6           7           8           9          10
           11          12          13          14          15          16          17          18          19          20
           21          22          23          24          25          26          27          28          29          30
           31          32          33          34          35          36          37          38          39          40
           41          42          43          44          45          46          47          48          49          50
 ........................................................................................................................
   1    10.00       9.960       9.905       9.850       9.804       9.748       9.694       9.637       9.560       9.498    
        9.461       9.424       9.383       9.342       9.276       9.203       9.124       9.062       9.034       9.002    
        8.963       8.929       8.893       8.847       8.783       8.671       8.536       8.405       8.253       8.102    
        7.888       7.549       7.151       6.732       6.263       5.831       5.465       5.124       4.659       4.155    
        3.725       3.300       2.713       2.157       1.768       1.377       1.050      0.8388      0.5562       0.000    
   2    10.00       9.959       9.910       9.855       9.807       9.755       9.694       9.620       9.546       9.498    
        9.465       9.432       9.400       9.349       9.273       9.198       9.126       9.065       9.035       8.999    
        8.959       8.933       8.905       8.856       8.783       8.676       8.541       8.403       8.261       8.110    
        7.878       7.529       7.111       6.638       6.165       5.748       5.421       5.087       4.616       4.143    
        3.709       3.197       2.667       2.226       1.839       1.475       1.101      0.7967      0.4253       0.000    
   3    10.00       9.956       9.908       9.858       9.809       9.750       9.675       9.604       9.557       9.513    
        9.475       9.446       9.415       9.366       9.291       9.197       9.121       9.071       9.033       8.997    
        8.964       8.936       8.908       8.848       8.770       8.662       8.534       8.431       8.280       8.101    
        7.803       7.399       6.957       6.500       6.063       5.673       5.380       5.037       4.529       4.069    
        3.707       3.239       2.749       2.325       1.922       1.554       1.112      0.6836      0.3006       0.000    
   4    10.00       9.959       9.911       9.857       9.796       9.728       9.656       9.604       9.564       9.522    
        9.489       9.465       9.430       9.378       9.309       9.207       9.123       9.076       9.035       9.002    
        8.964       8.931       8.896       8.833       8.754       8.651       8.526       8.411       8.295       8.070    
        7.688       7.199       6.729       6.381       6.051       5.670       5.292       4.859       4.431       4.093    
        3.769       3.353       2.860       2.440       2.017       1.571       1.061      0.6072      0.2828       0.000    
   5    10.00       9.956       9.906       9.843       9.781       9.718       9.655       9.610       9.569       9.533    
        9.504       9.478       9.438       9.378       9.298       9.205       9.133       9.082       9.041       8.996    
        8.953       8.919       8.875       8.809       8.735       8.619       8.496       8.397       8.279       7.998    
        7.504       6.973       6.587       6.320       6.019       5.630       5.201       4.774       4.466       4.178    
        3.883       3.450       2.935       2.567       2.135       1.551      0.9654      0.5604      0.2819       0.000    
   6    10.00       9.946       9.886       9.837       9.778       9.713       9.660       9.620       9.577       9.544    
        9.517       9.485       9.434       9.365       9.296       9.220       9.142       9.081       9.029       8.978    
        8.940       8.905       8.863       8.795       8.687       8.577       8.484       8.376       8.183       7.785    
        7.244       6.770       6.475       6.270       6.024       5.599       5.131       4.785       4.557       4.302    
        4.011       3.618       3.103       2.644       2.109       1.484      0.8655      0.4928      0.2753       0.000    
   7    10.00       9.930       9.874       9.827       9.770       9.723       9.673       9.631       9.595       9.560    
        9.525       9.480       9.418       9.351       9.289       9.227       9.142       9.061       9.006       8.963    
        8.927       8.889       8.846       8.759       8.649       8.557       8.457       8.291       7.977       7.481    
        6.968       6.599       6.412       6.248       5.938       5.524       5.210       4.901       4.648       4.467    
        4.170       3.760       3.207       2.612       1.953       1.236      0.7252      0.5003      0.2533       0.000    
   8    10.00       9.926       9.874       9.823       9.773       9.731       9.688       9.648       9.613       9.580    
        9.529       9.464       9.400       9.341       9.284       9.208       9.110       9.033       8.992       8.951    
        8.909       8.876       8.811       8.721       8.624       8.517       8.334       8.077       7.661       7.235    
        6.847       6.545       6.397       6.198       5.854       5.531       5.267       5.038       4.827       4.609    
        4.298       3.790       3.151       2.473       1.724       1.115      0.7674      0.4907      0.2260       0.000    
   9    10.00       9.930       9.871       9.821       9.785       9.750       9.709       9.669       9.629       9.592    
        9.529       9.450       9.384       9.325       9.257       9.174       9.086       9.018       8.974       8.933    
        8.895       8.844       8.758       8.676       8.581       8.440       8.182       7.801       7.396       7.089    
        6.778       6.544       6.375       6.112       5.794       5.538       5.346       5.162       4.979       4.738    
        4.350       3.818       3.138       2.380       1.690       1.154      0.7827      0.4866      0.2412       0.000    
  10    10.00       9.928       9.869       9.828       9.796       9.763       9.726       9.692       9.646       9.587    
        9.512       9.434       9.370       9.306       9.236       9.142       9.054       9.000       8.960       8.918    
        8.878       8.802       8.710       8.623       8.499       8.301       7.935       7.521       7.191       6.957    
        6.761       6.558       6.342       6.070       5.788       5.583       5.428       5.273       5.065       4.784    
        4.366       3.782       3.054       2.377       1.830       1.322      0.8379      0.5165      0.2721       0.000    
  11    10.00       9.919       9.874       9.839       9.807       9.778       9.745       9.700       9.637       9.572    
        9.498       9.421       9.361       9.279       9.185       9.103       9.040       8.988       8.949       8.903    
        8.838       8.744       8.621       8.499       8.298       8.014       7.689       7.395       7.115       6.930    
        6.762       6.509       6.258       6.054       5.855       5.689       5.528       5.324       5.077       4.748    
        4.354       3.837       3.097       2.477       1.991       1.502      0.9647      0.5113      0.2052       0.000    
  12    10.00       9.926       9.881       9.845       9.819       9.788       9.752       9.692       9.619       9.553    
        9.483       9.409       9.329       9.232       9.156       9.087       9.021       8.977       8.930       8.865    
        8.750       8.598       8.436       8.263       8.023       7.801       7.603       7.314       7.067       6.900    
        6.714       6.486       6.268       6.086       5.941       5.787       5.590       5.357       5.059       4.711    
        4.322       3.815       3.135       2.579       2.138       1.609       1.014      0.4831      0.1607       0.000    
  13    10.00       9.943       9.901       9.862       9.828       9.793       9.742       9.669       9.593       9.529    
        9.457       9.384       9.303       9.205       9.119       9.051       9.005       8.953       8.891       8.757    
        8.561       8.381       8.207       7.998       7.809       7.691       7.463       7.203       7.052       6.896    
        6.684       6.472       6.302       6.153       6.024       5.878       5.646       5.350       5.054       4.692    
        4.302       3.783       3.081       2.562       2.152       1.573      0.9440      0.4368      0.1262       0.000    
  14    10.00       9.958       9.921       9.880       9.839       9.786       9.714       9.638       9.571       9.499    
        9.429       9.363       9.268       9.163       9.088       9.032       8.965       8.895       8.764       8.542    
        8.337       8.175       7.955       7.779       7.681       7.550       7.325       7.157       7.021       6.866    
        6.669       6.505       6.382       6.237       6.092       5.932       5.669       5.339       5.019       4.649    
        4.230       3.605       2.944       2.524       2.023       1.468      0.9315      0.3992      0.1027       0.000    
  15    10.00       9.967       9.929       9.889       9.842       9.764       9.675       9.609       9.544       9.475    
        9.423       9.348       9.228       9.117       9.050       8.966       8.882       8.795       8.588       8.335    
        8.163       7.944       7.737       7.657       7.583       7.433       7.246       7.082       6.969       6.840    
        6.686       6.564       6.449       6.318       6.155       5.952       5.645       5.270       4.934       4.592    
        4.139       3.529       2.955       2.390       1.784       1.288      0.8013      0.3519      0.1056       0.000    
  16    10.00       9.976       9.939       9.892       9.820       9.725       9.649       9.595       9.537       9.467    
        9.398       9.296       9.164       9.060       8.970       8.876       8.818       8.659       8.369       8.137    
        7.960       7.742       7.648       7.587       7.477       7.299       7.143       7.043       6.964       6.851    
        6.717       6.606       6.509       6.365       6.163       5.913       5.546       5.204       4.936       4.566    
        4.049       3.392       2.735       2.109       1.595       1.105      0.6830      0.3342      0.1127       0.000    
  17    10.00       9.976       9.938       9.876       9.787       9.693       9.629       9.581       9.518       9.442    
        9.332       9.207       9.092       8.984       8.878       8.791       8.663       8.410       8.141       7.974    
        7.799       7.648       7.574       7.468       7.302       7.161       7.100       7.047       6.974       6.854    
        6.733       6.633       6.537       6.404       6.126       5.782       5.466       5.219       4.960       4.493    
        3.805       3.139       2.515       1.902       1.364      0.8941      0.5726      0.2990      0.1228       0.000    
  18    10.00       9.971       9.926       9.852       9.743       9.668       9.618       9.554       9.483       9.382    
        9.253       9.145       9.032       8.895       8.762       8.625       8.447       8.193       7.988       7.837    
        7.688       7.556       7.446       7.301       7.175       7.117       7.087       7.050       6.974       6.865    
        6.760       6.660       6.539       6.324       6.038       5.741       5.464       5.241       4.880       4.262    
        3.562       2.858       2.194       1.693       1.265      0.8383      0.4918      0.2473      0.1185       0.000    
  19    10.00       9.964       9.915       9.809       9.700       9.656       9.603       9.525       9.439       9.332    
        9.217       9.117       8.961       8.760       8.608       8.470       8.256       8.021       7.876       7.758    
        7.602       7.445       7.323       7.202       7.129       7.093       7.066       7.025       6.960       6.877    
        6.790       6.677       6.498       6.275       6.018       5.723       5.467       5.149       4.548       3.917    
        3.357       2.632       2.004       1.607       1.183      0.7562      0.4439      0.2517      0.1289       0.000    
  20    10.00       9.956       9.874       9.765       9.687       9.640       9.583       9.500       9.406       9.310    
        9.193       9.045       8.819       8.625       8.493       8.324       8.111       7.978       7.846       7.681    
        7.508       7.364       7.235       7.142       7.087       7.052       7.012       6.980       6.936       6.879    
        6.800       6.675       6.471       6.236       5.965       5.701       5.384       4.822       4.185       3.689    
        3.088       2.424       1.955       1.571       1.143      0.6707      0.3875      0.2620      0.1350       0.000    
  21    10.00       9.927       9.840       9.749       9.673       9.624       9.563       9.467       9.374       9.284    
        9.131       8.911       8.687       8.544       8.397       8.221       8.061       7.935       7.777       7.600    
        7.429       7.286       7.170       7.073       7.004       6.953       6.930       6.918       6.893       6.856    
        6.792       6.638       6.410       6.164       5.885       5.594       5.117       4.538       4.036       3.436    
        2.869       2.348       1.952       1.564      0.9621      0.5425      0.3921      0.2958      0.1418       0.000    
  22    10.00       9.908       9.804       9.724       9.664       9.605       9.520       9.433       9.351       9.229    
        9.036       8.792       8.618       8.490       8.328       8.147       7.992       7.856       7.708       7.537    
        7.366       7.214       7.065       6.923       6.837       6.814       6.824       6.827       6.832       6.812    
        6.736       6.556       6.346       6.081       5.784       5.495       5.002       4.436       3.785       3.208    
        2.799       2.383       1.907       1.259      0.7493      0.5404      0.4108      0.2734      0.1011       0.000    
  23    10.00       9.882       9.781       9.719       9.656       9.569       9.478       9.413       9.312       9.162    
        8.941       8.734       8.609       8.450       8.238       8.056       7.931       7.819       7.679       7.494    
        7.313       7.136       6.925       6.669       6.477       6.519       6.640       6.711       6.753       6.748    
        6.662       6.477       6.259       6.017       5.727       5.392       4.892       4.199       3.552       3.146    
        2.770       2.246       1.567       1.013      0.7368      0.5508      0.3939      0.2323      9.2446E-02   0.000    
  24    10.00       9.865       9.792       9.718       9.630       9.541       9.471       9.400       9.303       9.106    
        8.900       8.746       8.603       8.390       8.155       8.023       7.918       7.808       7.647       7.473    
        7.312       7.090       6.749       6.261       5.651       5.930       6.315       6.559       6.665       6.665    
        6.572       6.398       6.196       5.932       5.628       5.225       4.608       3.961       3.475       3.052    
        2.591       2.010       1.404      0.9817      0.7378      0.5364      0.3592      0.2516      0.1235       0.000    
  25    10.00       9.881       9.807       9.713       9.622       9.540       9.471       9.405       9.261       9.071    
        8.911       8.755       8.566       8.330       8.155       8.038       7.921       7.789       7.642       7.494    
        7.311       7.100       6.617       5.671       3.926       5.281       6.013       6.410       6.590       6.597    
        6.495       6.336       6.127       5.796       5.417       4.913       4.352       3.845       3.424       2.928    
        2.373       1.818       1.309      0.9725      0.7646      0.5573      0.3784      0.2635      0.1640       0.000    
  26    10.00       9.897       9.826       9.728       9.629       9.555       9.481       9.384       9.242       9.107    
        8.955       8.737       8.505       8.313       8.182       8.070       7.936       7.774       7.631       7.508    
        7.358       7.157       6.756       6.089       5.326       5.721       6.181       6.459       6.591       6.545    
        6.408       6.258       6.001       5.645       5.251       4.780       4.170       3.694       3.306       2.709    
        2.085       1.600       1.296       1.062      0.8245      0.6015      0.4124      0.2862      0.1672       0.000    
  27    10.00       9.919       9.831       9.743       9.658       9.570       9.487       9.389       9.270       9.144    
        8.948       8.699       8.494       8.334       8.224       8.093       7.917       7.750       7.641       7.542    
        7.430       7.253       6.966       6.600       6.243       6.269       6.449       6.593       6.608       6.484    
        6.342       6.190       5.918       5.550       5.106       4.494       3.940       3.557       2.980       2.361    
        1.880       1.570       1.341       1.136      0.9013      0.6565      0.4480      0.3150      0.1987       0.000    
  28    10.00       9.924       9.853       9.773       9.690       9.596       9.503       9.408       9.302       9.153    
        8.920       8.700       8.517       8.358       8.239       8.105       7.962       7.810       7.665       7.567    
        7.481       7.360       7.187       6.950       6.761       6.657       6.677       6.698       6.611       6.462    
        6.295       6.108       5.801       5.374       4.828       4.223       3.764       3.242       2.651       2.217    
        1.876       1.613       1.389       1.175      0.9470      0.7164      0.5082      0.3586      0.2049       0.000    
  29    10.00       9.930       9.860       9.797       9.715       9.631       9.539       9.440       9.322       9.120    
        8.900       8.710       8.531       8.394       8.253       8.111       7.981       7.860       7.730       7.609    
        7.518       7.428       7.321       7.192       7.019       6.916       6.842       6.758       6.623       6.409    
        6.206       5.930       5.615       5.101       4.492       3.993       3.548       3.016       2.548       2.233    
        1.957       1.669       1.415       1.210       1.004      0.7575      0.5369      0.3746      0.2077       0.000    
  30    10.00       9.939       9.881       9.826       9.752       9.668       9.585       9.470       9.309       9.121    
        8.896       8.685       8.537       8.395       8.258       8.130       8.024       7.916       7.790       7.660    
        7.556       7.481       7.395       7.308       7.184       7.028       6.908       6.771       6.578       6.341    
        6.044       5.666       5.300       4.816       4.364       3.911       3.444       2.952       2.602       2.317    
        1.990       1.701       1.481       1.247       1.002      0.7837      0.5722      0.3978      0.2235       0.000    
  31    10.00       9.952       9.904       9.851       9.795       9.726       9.630       9.483       9.296       9.098    
        8.877       8.686       8.549       8.407       8.277       8.153       8.050       7.962       7.828       7.700    
        7.606       7.525       7.448       7.333       7.184       7.045       6.916       6.764       6.533       6.220    
        5.807       5.404       5.072       4.712       4.296       3.825       3.358       2.960       2.716       2.444    
        2.081       1.764       1.513       1.276       1.049      0.8242      0.6062      0.4186      0.2167       0.000    
  32    10.00       9.958       9.923       9.877       9.824       9.757       9.652       9.481       9.308       9.118    
        8.887       8.709       8.576       8.423       8.276       8.171       8.082       7.973       7.859       7.736    
        7.627       7.538       7.427       7.275       7.150       7.060       6.923       6.711       6.403       6.025    
        5.618       5.267       4.956       4.630       4.229       3.811       3.446       3.109       2.829       2.517    
        2.182       1.869       1.605       1.334       1.086      0.8960      0.6682      0.4106      0.1833       0.000    
  33    10.00       9.964       9.937       9.897       9.842       9.770       9.631       9.461       9.321       9.146    
        8.932       8.758       8.592       8.410       8.277       8.193       8.111       7.995       7.870       7.741    
        7.622       7.510       7.360       7.229       7.144       7.053       6.827       6.533       6.237       5.913    
        5.536       5.244       4.932       4.549       4.184       3.818       3.524       3.259       2.939       2.596    
        2.307       2.012       1.722       1.442       1.182      0.9697      0.7146      0.4124      0.1792       0.000    
  34    10.00       9.970       9.949       9.915       9.842       9.734       9.604       9.486       9.340       9.164    
        8.975       8.778       8.583       8.401       8.295       8.226       8.132       8.009       7.854       7.718    
        7.591       7.441       7.295       7.189       7.098       6.941       6.682       6.425       6.147       5.785    
        5.464       5.241       4.933       4.570       4.218       3.887       3.611       3.347       3.020       2.711    
        2.454       2.171       1.854       1.575       1.311       1.068      0.7640      0.4638      0.2432       0.000    
  35    10.00       9.975       9.949       9.899       9.808       9.701       9.608       9.504       9.383       9.188    
        8.974       8.767       8.566       8.421       8.330       8.252       8.138       7.997       7.832       7.667    
        7.485       7.335       7.195       7.100       7.003       6.852       6.599       6.314       6.002       5.643    
        5.413       5.175       4.876       4.614       4.324       3.981       3.681       3.462       3.155       2.828    
        2.580       2.290       1.973       1.698       1.424       1.158      0.8756      0.5803      0.2871       0.000    
  36    10.00       9.969       9.926       9.871       9.786       9.686       9.607       9.515       9.382       9.187    
        8.947       8.724       8.582       8.476       8.380       8.269       8.127       7.971       7.772       7.512    
        7.321       7.206       7.096       7.017       6.928       6.746       6.470       6.174       5.806       5.503    
        5.319       5.131       4.881       4.633       4.393       4.089       3.792       3.561       3.288       2.932    
        2.660       2.337       2.021       1.811       1.545       1.249      0.9658      0.6572      0.3215       0.000    
  37    10.00       9.951       9.905       9.849       9.765       9.678       9.587       9.498       9.372       9.142    
        8.890       8.721       8.639       8.531       8.403       8.283       8.087       7.882       7.601       7.327    
        7.228       7.132       7.026       6.937       6.827       6.608       6.343       5.956       5.635       5.451    
        5.300       5.106       4.863       4.671       4.428       4.141       3.910       3.689       3.382       2.991    
        2.635       2.332       2.112       1.895       1.628       1.347       1.064      0.7248      0.3980       0.000    
  38    10.00       9.944       9.883       9.825       9.750       9.666       9.568       9.471       9.323       9.106    
        8.917       8.785       8.678       8.571       8.421       8.204       7.971       7.715       7.399       7.235    
        7.157       7.026       6.905       6.836       6.703       6.476       6.097       5.750       5.593       5.458    
        5.301       5.099       4.883       4.693       4.457       4.198       4.009       3.784       3.393       2.963    
        2.654       2.401       2.183       1.959       1.723       1.437       1.155      0.8382      0.4142       0.000    
  39    10.00       9.927       9.867       9.814       9.742       9.644       9.539       9.438       9.298       9.120    
        8.970       8.867       8.741       8.582       8.337       8.052       7.790       7.485       7.271       7.176    
        7.037       6.883       6.795       6.726       6.597       6.295       5.933       5.740       5.601       5.463    
        5.286       5.098       4.891       4.703       4.525       4.313       4.065       3.793       3.408       3.007    
        2.682       2.421       2.249       2.061       1.795       1.513       1.226      0.8725      0.4088       0.000    
  40    10.00       9.918       9.861       9.806       9.730       9.629       9.526       9.425       9.301       9.150    
        9.025       8.930       8.759       8.492       8.176       7.891       7.613       7.359       7.211       7.075    
        6.911       6.783       6.715       6.621       6.452       6.184       5.952       5.766       5.613       5.470    
        5.298       5.097       4.904       4.748       4.593       4.379       4.093       3.808       3.417       2.988    
        2.683       2.476       2.287       2.127       1.847       1.538       1.276      0.8750      0.4073       0.000    
  41    10.00       9.925       9.858       9.791       9.709       9.629       9.543       9.448       9.324       9.185    
        9.064       8.940       8.704       8.380       8.055       7.791       7.520       7.282       7.133       6.980    
        6.816       6.707       6.626       6.516       6.345       6.153       6.001       5.822       5.633       5.466    
        5.302       5.123       4.939       4.804       4.639       4.426       4.140       3.747       3.299       2.968    
        2.747       2.547       2.352       2.128       1.837       1.541       1.317      0.9322      0.4227       0.000    
  42    10.00       9.924       9.848       9.789       9.728       9.654       9.561       9.452       9.345       9.237    
        9.074       8.851       8.576       8.265       7.964       7.724       7.458       7.230       7.066       6.894    
        6.741       6.644       6.552       6.454       6.305       6.176       6.049       5.846       5.634       5.485    
        5.353       5.157       4.961       4.830       4.678       4.451       4.099       3.636       3.226       2.980    
        2.814       2.635       2.386       2.088       1.809       1.578       1.345      0.9833      0.4851       0.000    
  43    10.00       9.917       9.853       9.802       9.753       9.681       9.589       9.485       9.363       9.187    
        8.969       8.738       8.481       8.159       7.890       7.668       7.429       7.196       6.989       6.827    
        6.693       6.595       6.519       6.440       6.316       6.185       6.056       5.845       5.662       5.553    
        5.392       5.182       4.994       4.859       4.681       4.387       3.981       3.543       3.244       3.056    
        2.878       2.673       2.367       2.062       1.815       1.592       1.391      0.9972      0.4557       0.000    
  44    10.00       9.917       9.860       9.814       9.756       9.701       9.624       9.481       9.296       9.090    
        8.906       8.673       8.363       8.094       7.881       7.624       7.363       7.113       6.908       6.767    
        6.669       6.587       6.513       6.432       6.326       6.192       6.019       5.845       5.722       5.593    
        5.449       5.266       5.050       4.845       4.628       4.299       3.874       3.513       3.282       3.100    
        2.921       2.677       2.382       2.118       1.854       1.614       1.369      0.9003      0.4140       0.000    
  45    10.00       9.926       9.873       9.813       9.756       9.707       9.579       9.408       9.219       9.042    
        8.891       8.577       8.256       8.060       7.829       7.543       7.258       7.027       6.862       6.752    
        6.679       6.602       6.521       6.426       6.309       6.177       6.032       5.899       5.791       5.657    
        5.490       5.301       5.078       4.820       4.560       4.207       3.808       3.524       3.348       3.161    
        2.922       2.643       2.390       2.149       1.915       1.676       1.278      0.8000      0.4026       0.000    
  46    10.00       9.940       9.883       9.813       9.747       9.651       9.510       9.380       9.222       9.032    
        8.779       8.480       8.223       7.975       7.727       7.451       7.186       7.016       6.881       6.776    
        6.702       6.628       6.524       6.406       6.293       6.183       6.068       5.947       5.839       5.720    
        5.570       5.370       5.118       4.811       4.441       4.074       3.779       3.578       3.395       3.200    
        2.917       2.620       2.368       2.177       1.954       1.643       1.190      0.7641      0.3767       0.000    
  47    10.00       9.951       9.897       9.827       9.713       9.586       9.466       9.364       9.218       8.967    
        8.664       8.390       8.166       7.959       7.696       7.395       7.162       7.001       6.892       6.805    
        6.724       6.636       6.527       6.404       6.295       6.208       6.114       5.995       5.870       5.754    
        5.622       5.455       5.120       4.690       4.329       4.066       3.819       3.646       3.484       3.213    
        2.869       2.555       2.327       2.195       1.948       1.567       1.125      0.7370      0.3724       0.000    
  48    10.00       9.956       9.900       9.795       9.678       9.569       9.448       9.344       9.196       8.913    
        8.582       8.353       8.169       7.915       7.609       7.338       7.163       7.001       6.893       6.824    
        6.742       6.636       6.519       6.406       6.317       6.248       6.164       6.032       5.887       5.762    
        5.625       5.423       5.074       4.717       4.396       4.105       3.885       3.708       3.501       3.157    
        2.787       2.545       2.363       2.130       1.806       1.468       1.089      0.7423      0.3930       0.000    
  49    10.00       9.953       9.869       9.767       9.679       9.562       9.444       9.334       9.148       8.848    
        8.552       8.333       8.103       7.846       7.616       7.363       7.119       6.969       6.903       6.838    
        6.760       6.639       6.503       6.405       6.337       6.286       6.189       6.037       5.885       5.771    
        5.622       5.357       5.050       4.797       4.528       4.207       3.922       3.703       3.459       3.091    
        2.793       2.581       2.330       1.994       1.707       1.402       1.071      0.7545      0.3842       0.000    
  50    10.00       9.941       9.848       9.755       9.684       9.574       9.444       9.304       9.103       8.866    
        8.566       8.273       8.034       7.829       7.644       7.361       7.082       6.969       6.911       6.848    
        6.773       6.636       6.491       6.402       6.348       6.302       6.193       6.030       5.884       5.769    
        5.606       5.327       5.091       4.874       4.582       4.263       3.974       3.684       3.333       3.007    
        2.850       2.626       2.260       1.923       1.682       1.392       1.104      0.7369      0.3027       0.000    

 HEAD WILL BE SAVED ON UNIT   51 AT END OF TIME STEP   7, STRESS PERIOD    2

 DRAWDOWN WILL BE SAVED ON UNIT   52 AT END OF TIME STEP   7, STRESS PERIOD    2
1
  VOLUMETRIC BUDGET FOR ENTIRE MODEL AT END OF TIME STEP  7 IN STRESS PERIOD   2
  ------------------------------------------------------------------------------

     CUMULATIVE VOLUMES      L**3       RATES FOR THIS TIME STEP      L**3/T
     ------------------                 ------------------------

           IN:                                      IN:
           ---                                      ---
             STORAGE =        3499.9851               STORAGE =         499.9867
       CONSTANT HEAD =        4319.1631         CONSTANT HEAD =         539.9063
               WELLS =           0.0000                 WELLS =           0.0000

            TOTAL IN =        7819.1484              TOTAL IN =        1039.8931

          OUT:                                     OUT:
          ----                                     ----
             STORAGE =       8.9865E-03               STORAGE =       2.0786E-04
       CONSTANT HEAD =        4319.1387         CONSTANT HEAD =         539.8923
               WELLS =        3500.0000                 WELLS =         500.0000

           TOTAL OUT =        7819.1475             TOTAL OUT =        1039.8926

            IN - OUT =       9.7656E-04              IN - OUT =       4.8828E-04

 PERCENT DISCREPANCY =           0.00     PERCENT DISCREPANCY =           0.00






          TIME SUMMARY AT END OF TIME STEP   7 IN STRESS PERIOD    2
                    SECONDS     MINUTES      HOURS       DAYS        YEARS
                    -----------------------------------------------------------
   TIME STEP LENGTH  86400.      1440.0      24.000      1.0000     2.73785E-03
 STRESS PERIOD TIME 6.04800E+05  10080.      168.00      7.0000     1.91650E-02
         TOTAL TIME 6.91200E+05  11520.      192.00      8.0000     2.19028E-02
1
 
 SOLVING FOR HEAD 

 OUTPUT CONTROL FOR STRESS PERIOD    2   TIME STEP   8
    SAVE HEAD FOR ALL LAYERS
    SAVE DRAWDOWN FOR ALL LAYERS
    SAVE BUDGET
    PRINT HEAD FOR ALL LAYERS
    PRINT BUDGET
 UBDSV1 SAVING "         STORAGE" ON UNIT  53 AT TIME STEP  8, STRESS PERIOD   2
 UBDSV2 SAVING "   CONSTANT HEAD" ON UNIT  53 AT TIME STEP  8, STRESS PERIOD   2
 UBDSV1 SAVING "FLOW RIGHT FACE " ON UNIT  53 AT TIME STEP  8, STRESS PERIOD   2
 UBDSV1 SAVING "FLOW FRONT FACE " ON UNIT  53 AT TIME STEP  8, STRESS PERIOD   2
1
              HEAD IN LAYER   1 AT END OF TIME STEP   8 IN STRESS PERIOD    2
  ---------------------------------------------------------------------------

            1           2           3           4           5           6           7           8           9          10
           11          12          13          14          15          16          17          18          19          20
           21          22          23          24          25          26          27          28          29          30
           31          32          33          34          35          36          37          38          39          40
           41          42          43          44          45          46          47          48          49          50
 ........................................................................................................................
   1    10.00       9.960       9.905       9.850       9.804       9.748       9.694       9.637       9.560       9.498    
        9.461       9.424       9.383       9.342       9.276       9.203       9.124       9.062       9.034       9.002    
        8.963       8.929       8.893       8.847       8.783       8.671       8.536       8.405       8.253       8.102    
        7.888       7.549       7.151       6.732       6.263       5.831       5.465       5.124       4.659       4.155    
        3.725       3.300       2.713       2.157       1.768       1.377       1.050      0.8388      0.5562       0.000    
   2    10.00       9.959       9.910       9.855       9.807       9.755       9.694       9.620       9.546       9.498    
        9.465       9.432       9.400       9.349       9.273       9.198       9.126       9.065       9.035       8.999    
        8.959       8.933       8.905       8.856       8.783       8.676       8.540       8.403       8.261       8.110    
        7.878       7.529       7.111       6.638       6.165       5.748       5.421       5.087       4.616       4.143    
        3.709       3.197       2.667       2.226       1.839       1.475       1.101      0.7967      0.4253       0.000    
   3    10.00       9.956       9.908       9.858       9.809       9.750       9.675       9.604       9.557       9.513    
        9.475       9.446       9.415       9.366       9.291       9.197       9.121       9.071       9.033       8.997    
        8.964       8.936       8.908       8.848       8.770       8.662       8.534       8.431       8.280       8.101    
        7.803       7.399       6.957       6.500       6.063       5.673       5.380       5.037       4.529       4.069    
        3.707       3.239       2.749       2.325       1.922       1.554       1.112      0.6836      0.3006       0.000    
   4    10.00       9.959       9.911       9.857       9.796       9.728       9.656       9.604       9.564       9.522    
        9.489       9.465       9.430       9.378       9.309       9.207       9.123       9.076       9.035       9.001    
        8.964       8.931       8.896       8.833       8.754       8.651       8.526       8.411       8.295       8.070    
        7.688       7.199       6.729       6.381       6.051       5.670       5.292       4.859       4.431       4.093    
        3.769       3.353       2.860       2.440       2.017       1.571       1.061      0.6072      0.2828       0.000    
   5    10.00       9.956       9.906       9.843       9.781       9.718       9.655       9.610       9.569       9.533    
        9.504       9.478       9.438       9.378       9.297       9.205       9.133       9.082       9.041       8.995    
        8.953       8.919       8.874       8.809       8.735       8.619       8.496       8.397       8.279       7.998    
        7.504       6.973       6.587       6.320       6.019       5.630       5.201       4.773       4.466       4.178    
        3.883       3.450       2.935       2.567       2.135       1.551      0.9654      0.5604      0.2819       0.000    
   6    10.00       9.946       9.886       9.837       9.778       9.713       9.660       9.620       9.577       9.544    
        9.517       9.485       9.434       9.364       9.296       9.220       9.142       9.081       9.029       8.977    
        8.940       8.904       8.863       8.795       8.687       8.576       8.483       8.376       8.183       7.785    
        7.244       6.770       6.474       6.270       6.024       5.599       5.131       4.785       4.557       4.302    
        4.011       3.618       3.103       2.644       2.109       1.484      0.8655      0.4928      0.2753       0.000    
   7    10.00       9.930       9.874       9.827       9.770       9.723       9.673       9.631       9.595       9.560    
        9.525       9.480       9.418       9.351       9.289       9.227       9.142       9.061       9.006       8.963    
        8.926       8.889       8.846       8.758       8.648       8.557       8.457       8.291       7.977       7.481    
        6.968       6.599       6.411       6.248       5.938       5.523       5.210       4.901       4.648       4.467    
        4.170       3.760       3.207       2.612       1.953       1.236      0.7252      0.5003      0.2533       0.000    
   8    10.00       9.926       9.874       9.823       9.773       9.731       9.688       9.648       9.613       9.580    
        9.529       9.464       9.400       9.341       9.284       9.208       9.110       9.033       8.991       8.951    
        8.908       8.875       8.811       8.720       8.623       8.517       8.334       8.076       7.661       7.235    
        6.846       6.545       6.396       6.197       5.854       5.531       5.267       5.038       4.827       4.609    
        4.298       3.790       3.151       2.473       1.724       1.115      0.7674      0.4907      0.2260       0.000    
   9    10.00       9.930       9.871       9.821       9.785       9.750       9.709       9.669       9.629       9.592    
        9.529       9.450       9.384       9.325       9.257       9.174       9.086       9.018       8.974       8.932    
        8.894       8.844       8.758       8.676       8.580       8.439       8.181       7.801       7.395       7.088    
        6.777       6.543       6.375       6.112       5.793       5.537       5.345       5.161       4.978       4.738    
        4.350       3.818       3.138       2.380       1.690       1.154      0.7827      0.4866      0.2412       0.000    
  10    10.00       9.928       9.869       9.828       9.796       9.763       9.726       9.692       9.646       9.587    
        9.512       9.434       9.370       9.306       9.236       9.142       9.054       9.000       8.959       8.917    
        8.878       8.801       8.709       8.622       8.498       8.300       7.933       7.519       7.190       6.955    
        6.759       6.557       6.341       6.069       5.787       5.582       5.428       5.272       5.065       4.784    
        4.366       3.782       3.054       2.377       1.830       1.322      0.8379      0.5165      0.2721       0.000    
  11    10.00       9.919       9.874       9.839       9.807       9.778       9.745       9.700       9.637       9.572    
        9.498       9.421       9.360       9.278       9.185       9.103       9.039       8.988       8.948       8.903    
        8.837       8.742       8.620       8.497       8.296       8.011       7.686       7.392       7.112       6.928    
        6.760       6.507       6.256       6.052       5.853       5.688       5.528       5.324       5.077       4.748    
        4.354       3.837       3.097       2.477       1.991       1.502      0.9647      0.5113      0.2052       0.000    
  12    10.00       9.926       9.881       9.845       9.818       9.788       9.752       9.692       9.619       9.552    
        9.483       9.409       9.329       9.232       9.155       9.086       9.021       8.977       8.930       8.864    
        8.749       8.596       8.433       8.258       8.017       7.795       7.598       7.309       7.062       6.896    
        6.710       6.482       6.265       6.083       5.939       5.786       5.589       5.357       5.058       4.711    
        4.322       3.815       3.135       2.579       2.138       1.609       1.014      0.4831      0.1607       0.000    
  13    10.00       9.943       9.901       9.862       9.828       9.793       9.742       9.669       9.593       9.529    
        9.457       9.384       9.303       9.205       9.119       9.051       9.005       8.952       8.890       8.756    
        8.557       8.376       8.200       7.990       7.799       7.681       7.454       7.193       7.044       6.889    
        6.679       6.467       6.298       6.150       6.021       5.876       5.645       5.349       5.053       4.691    
        4.302       3.783       3.081       2.562       2.152       1.573      0.9440      0.4368      0.1262       0.000    
  14    10.00       9.958       9.921       9.880       9.839       9.786       9.714       9.638       9.571       9.499    
        9.429       9.362       9.268       9.163       9.087       9.031       8.964       8.893       8.762       8.538    
        8.331       8.166       7.943       7.765       7.667       7.537       7.310       7.143       7.008       6.855    
        6.660       6.497       6.376       6.233       6.089       5.930       5.667       5.338       5.019       4.649    
        4.230       3.605       2.944       2.524       2.023       1.468      0.9315      0.3992      0.1027       0.000    
  15    10.00       9.967       9.929       9.889       9.842       9.764       9.675       9.609       9.544       9.475    
        9.423       9.348       9.228       9.116       9.049       8.964       8.880       8.793       8.584       8.327    
        8.153       7.929       7.719       7.638       7.565       7.414       7.226       7.062       6.951       6.824    
        6.674       6.554       6.441       6.312       6.150       5.949       5.643       5.269       4.934       4.592    
        4.139       3.529       2.955       2.390       1.784       1.288      0.8013      0.3519      0.1056       0.000    
  16    10.00       9.976       9.939       9.892       9.820       9.725       9.649       9.595       9.537       9.467    
        9.398       9.296       9.163       9.059       8.969       8.874       8.815       8.655       8.361       8.124    
        7.944       7.719       7.625       7.564       7.453       7.272       7.116       7.017       6.942       6.833    
        6.702       6.594       6.499       6.358       6.158       5.910       5.544       5.204       4.936       4.566    
        4.049       3.392       2.735       2.109       1.595       1.105      0.6830      0.3342      0.1127       0.000    
  17    10.00       9.976       9.938       9.876       9.787       9.693       9.629       9.581       9.518       9.442    
        9.332       9.206       9.091       8.983       8.876       8.787       8.658       8.401       8.126       7.955    
        7.775       7.621       7.545       7.438       7.269       7.126       7.066       7.017       6.948       6.834    
        6.717       6.620       6.526       6.396       6.122       5.780       5.465       5.218       4.960       4.493    
        3.805       3.139       2.515       1.902       1.364      0.8941      0.5726      0.2990      0.1228       0.000    
  18    10.00       9.971       9.926       9.852       9.743       9.668       9.618       9.554       9.483       9.382    
        9.253       9.144       9.031       8.893       8.759       8.619       8.437       8.177       7.966       7.811    
        7.657       7.522       7.410       7.262       7.135       7.078       7.049       7.015       6.944       6.841    
        6.741       6.644       6.528       6.317       6.034       5.739       5.463       5.240       4.880       4.262    
        3.562       2.858       2.194       1.693       1.265      0.8383      0.4918      0.2473      0.1185       0.000    
  19    10.00       9.964       9.915       9.809       9.700       9.656       9.603       9.524       9.439       9.332    
        9.217       9.116       8.959       8.757       8.602       8.461       8.241       7.998       7.848       7.726    
        7.565       7.404       7.280       7.157       7.084       7.050       7.025       6.987       6.925       6.849    
        6.767       6.660       6.487       6.268       6.015       5.721       5.466       5.149       4.548       3.917    
        3.357       2.632       2.004       1.607       1.183      0.7562      0.4439      0.2517      0.1289       0.000    
  20    10.00       9.956       9.874       9.765       9.687       9.640       9.583       9.500       9.405       9.310    
        9.193       9.044       8.816       8.620       8.484       8.311       8.090       7.953       7.816       7.644    
        7.466       7.318       7.187       7.093       7.038       7.004       6.966       6.937       6.896       6.845    
        6.773       6.656       6.460       6.229       5.962       5.699       5.383       4.822       4.185       3.689    
        3.088       2.424       1.955       1.571       1.143      0.6707      0.3875      0.2620      0.1350       0.000    
  21    10.00       9.927       9.840       9.749       9.673       9.624       9.562       9.467       9.374       9.284    
        9.131       8.909       8.683       8.537       8.386       8.204       8.038       7.907       7.742       7.558    
        7.382       7.235       7.117       7.020       6.951       6.900       6.878       6.869       6.848       6.817    
        6.761       6.618       6.399       6.158       5.882       5.593       5.116       4.537       4.036       3.436    
        2.869       2.348       1.952       1.564      0.9621      0.5425      0.3921      0.2958      0.1418       0.000    
  22    10.00       9.908       9.804       9.724       9.664       9.605       9.520       9.432       9.351       9.229    
        9.036       8.789       8.613       8.483       8.315       8.127       7.966       7.824       7.669       7.491    
        7.314       7.159       7.007       6.864       6.777       6.755       6.766       6.772       6.782       6.768    
        6.703       6.536       6.334       6.075       5.782       5.494       5.002       4.436       3.785       3.208    
        2.799       2.383       1.907       1.259      0.7493      0.5404      0.4108      0.2734      0.1011       0.000    
  23    10.00       9.882       9.781       9.719       9.656       9.569       9.478       9.413       9.312       9.162    
        8.939       8.731       8.604       8.441       8.222       8.032       7.902       7.785       7.638       7.446    
        7.259       7.078       6.862       6.602       6.408       6.451       6.575       6.649       6.697       6.701    
        6.627       6.456       6.247       6.010       5.725       5.391       4.892       4.199       3.552       3.146    
        2.770       2.246       1.567       1.013      0.7368      0.5508      0.3939      0.2323      9.2446E-02   0.000    
  24    10.00       9.865       9.792       9.718       9.630       9.541       9.471       9.399       9.303       9.105    
        8.898       8.743       8.598       8.380       8.136       7.998       7.888       7.772       7.605       7.423    
        7.258       7.029       6.683       6.187       5.572       5.850       6.239       6.489       6.605       6.617    
        6.539       6.377       6.184       5.926       5.625       5.224       4.607       3.961       3.475       3.052    
        2.591       2.010       1.404      0.9817      0.7378      0.5364      0.3592      0.2516      0.1235       0.000    
  25    10.00       9.881       9.807       9.713       9.622       9.540       9.470       9.405       9.261       9.070    
        8.909       8.751       8.560       8.317       8.136       8.014       7.891       7.753       7.600       7.445    
        7.256       7.039       6.547       5.590       3.837       5.192       5.926       6.332       6.527       6.551    
        6.464       6.317       6.116       5.791       5.415       4.912       4.352       3.845       3.424       2.928    
        2.373       1.818       1.309      0.9725      0.7646      0.5573      0.3784      0.2635      0.1640       0.000    
  26    10.00       9.897       9.826       9.728       9.629       9.555       9.480       9.384       9.241       9.107    
        8.954       8.734       8.497       8.301       8.165       8.048       7.907       7.738       7.589       7.460    
        7.305       7.098       6.687       6.008       5.237       5.627       6.088       6.377       6.529       6.506    
        6.384       6.242       5.993       5.641       5.249       4.779       4.170       3.694       3.306       2.709    
        2.085       1.600       1.296       1.062      0.8245      0.6015      0.4124      0.2862      0.1672       0.000    
  27    10.00       9.919       9.831       9.743       9.658       9.570       9.487       9.389       9.269       9.144    
        8.947       8.695       8.487       8.323       8.209       8.073       7.888       7.713       7.600       7.496    
        7.380       7.197       6.900       6.524       6.156       6.178       6.360       6.519       6.558       6.455    
        6.323       6.178       5.912       5.547       5.105       4.494       3.939       3.557       2.980       2.361    
        1.880       1.570       1.341       1.136      0.9013      0.6565      0.4480      0.3150      0.1987       0.000    
  28    10.00       9.924       9.853       9.773       9.689       9.596       9.503       9.408       9.302       9.152    
        8.918       8.696       8.511       8.348       8.226       8.087       7.938       7.777       7.626       7.523    
        7.433       7.307       7.128       6.882       6.683       6.575       6.602       6.641       6.573       6.438    
        6.280       6.099       5.796       5.373       4.828       4.223       3.764       3.242       2.651       2.217    
        1.876       1.613       1.389       1.175      0.9470      0.7164      0.5082      0.3586      0.2049       0.000    
  29    10.00       9.930       9.860       9.797       9.715       9.631       9.539       9.440       9.322       9.119    
        8.899       8.706       8.525       8.386       8.242       8.094       7.959       7.833       7.696       7.569    
        7.474       7.380       7.269       7.134       6.953       6.850       6.788       6.716       6.595       6.393    
        6.196       5.925       5.613       5.100       4.491       3.993       3.548       3.016       2.548       2.233    
        1.957       1.669       1.415       1.210       1.004      0.7575      0.5369      0.3746      0.2077       0.000    
  30    10.00       9.939       9.881       9.826       9.752       9.668       9.585       9.469       9.308       9.121    
        8.894       8.682       8.532       8.388       8.247       8.116       8.006       7.893       7.762       7.626    
        7.517       7.439       7.349       7.259       7.138       6.988       6.877       6.745       6.562       6.331    
        6.039       5.663       5.299       4.815       4.364       3.911       3.444       2.952       2.602       2.317    
        1.990       1.701       1.481       1.247       1.002      0.7837      0.5722      0.3978      0.2235       0.000    
  31    10.00       9.952       9.904       9.851       9.795       9.726       9.630       9.483       9.296       9.097    
        8.876       8.684       8.545       8.401       8.268       8.142       8.035       7.944       7.805       7.672    
        7.574       7.491       7.412       7.300       7.160       7.025       6.897       6.749       6.523       6.215    
        5.805       5.404       5.072       4.712       4.296       3.825       3.358       2.960       2.716       2.444    
        2.081       1.764       1.513       1.276       1.049      0.8242      0.6062      0.4186      0.2167       0.000    
  32    10.00       9.958       9.923       9.877       9.824       9.757       9.652       9.481       9.308       9.117    
        8.886       8.707       8.573       8.418       8.269       8.162       8.070       7.959       7.842       7.714    
        7.603       7.511       7.403       7.256       7.136       7.047       6.911       6.702       6.398       6.023    
        5.617       5.267       4.956       4.630       4.229       3.811       3.446       3.109       2.829       2.517    
        2.182       1.869       1.605       1.334       1.086      0.8960      0.6682      0.4106      0.1833       0.000    
  33    10.00       9.964       9.937       9.897       9.842       9.770       9.631       9.461       9.321       9.146    
        8.931       8.757       8.590       8.407       8.271       8.186       8.103       7.984       7.857       7.725    
        7.604       7.492       7.345       7.216       7.133       7.043       6.821       6.529       6.235       5.912    
        5.535       5.244       4.932       4.549       4.184       3.818       3.524       3.259       2.939       2.596    
        2.307       2.012       1.722       1.442       1.182      0.9697      0.7146      0.4124      0.1792       0.000    
  34    10.00       9.970       9.949       9.915       9.842       9.734       9.604       9.486       9.339       9.164    
        8.975       8.777       8.581       8.398       8.291       8.221       8.126       8.001       7.845       7.707    
        7.579       7.429       7.285       7.180       7.090       6.936       6.679       6.423       6.145       5.785    
        5.464       5.241       4.933       4.570       4.218       3.887       3.611       3.347       3.020       2.711    
        2.454       2.171       1.854       1.575       1.311       1.068      0.7640      0.4638      0.2432       0.000    
  35    10.00       9.975       9.949       9.899       9.808       9.701       9.608       9.504       9.383       9.188    
        8.974       8.767       8.564       8.419       8.327       8.248       8.133       7.992       7.826       7.660    
        7.478       7.329       7.189       7.095       6.999       6.849       6.597       6.314       6.002       5.642    
        5.413       5.175       4.876       4.614       4.324       3.981       3.681       3.462       3.155       2.828    
        2.580       2.290       1.973       1.698       1.424       1.158      0.8756      0.5803      0.2871       0.000    
  36    10.00       9.969       9.926       9.871       9.786       9.686       9.607       9.515       9.381       9.187    
        8.947       8.723       8.581       8.474       8.378       8.266       8.124       7.967       7.769       7.508    
        7.318       7.203       7.093       7.014       6.925       6.744       6.470       6.173       5.805       5.503    
        5.319       5.131       4.881       4.633       4.393       4.089       3.792       3.561       3.288       2.932    
        2.660       2.337       2.021       1.811       1.545       1.249      0.9658      0.6572      0.3215       0.000    
  37    10.00       9.951       9.905       9.849       9.765       9.678       9.587       9.498       9.372       9.142    
        8.889       8.720       8.638       8.530       8.401       8.281       8.086       7.880       7.599       7.326    
        7.226       7.130       7.025       6.935       6.826       6.607       6.342       5.956       5.635       5.451    
        5.300       5.106       4.863       4.671       4.428       4.141       3.910       3.689       3.382       2.991    
        2.635       2.332       2.112       1.895       1.628       1.347       1.064      0.7248      0.3980       0.000    
  38    10.00       9.944       9.883       9.825       9.750       9.666       9.568       9.471       9.323       9.106    
        8.917       8.784       8.677       8.570       8.420       8.203       7.970       7.714       7.398       7.235    
        7.155       7.025       6.904       6.835       6.702       6.476       6.097       5.750       5.593       5.458    
        5.301       5.099       4.883       4.693       4.457       4.198       4.009       3.784       3.393       2.963    
        2.654       2.401       2.183       1.959       1.723       1.437       1.155      0.8382      0.4142       0.000    
  39    10.00       9.927       9.867       9.814       9.742       9.644       9.539       9.438       9.298       9.119    
        8.970       8.866       8.740       8.582       8.337       8.052       7.789       7.485       7.271       7.175    
        7.037       6.883       6.794       6.725       6.597       6.294       5.933       5.740       5.601       5.463    
        5.286       5.098       4.891       4.703       4.525       4.313       4.065       3.793       3.408       3.007    
        2.682       2.421       2.249       2.061       1.795       1.513       1.226      0.8725      0.4088       0.000    
  40    10.00       9.918       9.861       9.806       9.730       9.629       9.526       9.425       9.301       9.150    
        9.025       8.930       8.759       8.492       8.176       7.891       7.613       7.359       7.210       7.075    
        6.911       6.783       6.714       6.621       6.452       6.184       5.952       5.766       5.613       5.470    
        5.298       5.097       4.904       4.748       4.593       4.379       4.093       3.808       3.417       2.988    
        2.683       2.476       2.287       2.127       1.847       1.538       1.276      0.8750      0.4073       0.000    
  41    10.00       9.925       9.858       9.791       9.709       9.629       9.543       9.448       9.324       9.185    
        9.064       8.940       8.704       8.380       8.055       7.791       7.520       7.282       7.133       6.980    
        6.816       6.707       6.626       6.516       6.345       6.153       6.001       5.822       5.633       5.466    
        5.302       5.123       4.939       4.804       4.639       4.426       4.140       3.747       3.299       2.968    
        2.747       2.547       2.352       2.128       1.837       1.541       1.317      0.9322      0.4227       0.000    
  42    10.00       9.924       9.848       9.789       9.728       9.654       9.561       9.452       9.345       9.237    
        9.074       8.851       8.576       8.265       7.964       7.724       7.458       7.230       7.065       6.893    
        6.741       6.644       6.552       6.454       6.305       6.176       6.049       5.846       5.634       5.485    
        5.353       5.157       4.961       4.830       4.678       4.451       4.099       3.636       3.226       2.980    
        2.814       2.635       2.386       2.088       1.809       1.578       1.345      0.9833      0.4851       0.000    
  43    10.00       9.917       9.853       9.802       9.753       9.681       9.589       9.484       9.363       9.187    
        8.969       8.738       8.481       8.159       7.890       7.668       7.429       7.196       6.989       6.827    
        6.693       6.595       6.519       6.440       6.316       6.185       6.056       5.845       5.662       5.553    
        5.392       5.182       4.994       4.859       4.681       4.387       3.981       3.543       3.244       3.056    
        2.878       2.673       2.367       2.062       1.815       1.592       1.391      0.9972      0.4557       0.000    
  44    10.00       9.917       9.860       9.814       9.756       9.701       9.624       9.481       9.296       9.090    
        8.906       8.673       8.363       8.094       7.881       7.624       7.363       7.113       6.908       6.767    
        6.669       6.587       6.513       6.432       6.326       6.192       6.019       5.845       5.722       5.593    
        5.449       5.266       5.050       4.845       4.628       4.299       3.874       3.513       3.282       3.100    
        2.921       2.677       2.382       2.118       1.854       1.614       1.369      0.9003      0.4140       0.000    
  45    10.00       9.926       9.873       9.813       9.756       9.707       9.579       9.408       9.219       9.042    
        8.891       8.577       8.256       8.060       7.829       7.543       7.258       7.027       6.862       6.752    
        6.679       6.602       6.521       6.426       6.309       6.177       6.032       5.899       5.791       5.657    
        5.490       5.301       5.078       4.820       4.560       4.207       3.808       3.524       3.348       3.161    
        2.922       2.643       2.390       2.149       1.915       1.676       1.278      0.8000      0.4026       0.000    
  46    10.00       9.940       9.883       9.813       9.747       9.651       9.510       9.380       9.222       9.032    
        8.779       8.480       8.223       7.975       7.727       7.451       7.186       7.016       6.881       6.776    
        6.702       6.628       6.524       6.406       6.293       6.183       6.068       5.947       5.839       5.720    
        5.570       5.370       5.118       4.811       4.441       4.074       3.779       3.578       3.395       3.200    
        2.917       2.620       2.368       2.177       1.954       1.643       1.190      0.7641      0.3767       0.000    
  47    10.00       9.951       9.897       9.827       9.713       9.586       9.466       9.364       9.218       8.967    
        8.664       8.390       8.166       7.959       7.696       7.395       7.162       7.001       6.892       6.805    
        6.724       6.636       6.527       6.404       6.295       6.208       6.114       5.995       5.870       5.754    
        5.622       5.455       5.120       4.690       4.329       4.066       3.819       3.646       3.484       3.213    
        2.869       2.555       2.327       2.195       1.948       1.567       1.125      0.7370      0.3724       0.000    
  48    10.00       9.956       9.900       9.795       9.678       9.569       9.448       9.344       9.196       8.913    
        8.582       8.353       8.169       7.915       7.609       7.338       7.163       7.001       6.893       6.824    
        6.742       6.636       6.519       6.406       6.316       6.248       6.164       6.032       5.887       5.762    
        5.625       5.423       5.074       4.717       4.396       4.105       3.885       3.708       3.501       3.157    
        2.787       2.545       2.363       2.130       1.806       1.468       1.089      0.7423      0.3930       0.000    
  49    10.00       9.953       9.869       9.767       9.679       9.562       9.444       9.334       9.148       8.848    
        8.552       8.333       8.103       7.846       7.616       7.363       7.119       6.969       6.902       6.838    
        6.760       6.639       6.503       6.405       6.337       6.286       6.189       6.037       5.885       5.771    
        5.622       5.357       5.050       4.797       4.528       4.207       3.922       3.703       3.459       3.091    
        2.793       2.581       2.330       1.994       1.707       1.402       1.071      0.7545      0.3842       0.000    
  50    10.00       9.941       9.848       9.755       9.684       9.574       9.444       9.304       9.103       8.866    
        8.566       8.273       8.034       7.829       7.644       7.361       7.082       6.969       6.911       6.848    
        6.773       6.636       6.491       6.402       6.348       6.302       6.193       6.030       5.884       5.769    
        5.606       5.327       5.091       4.874       4.582       4.263       3.974       3.684       3.333       3.007    
        2.850       2.626       2.260       1.923       1.682       1.392       1.104      0.7369      0.3027       0.000    

 HEAD WILL BE SAVED ON UNIT   51 AT END OF TIME STEP   8, STRESS PERIOD    2

 DRAWDOWN WILL BE SAVED ON UNIT   52 AT END OF TIME STEP   8, STRESS PERIOD    2
1
  VOLUMETRIC BUDGET FOR ENTIRE MODEL AT END OF TIME STEP  8 IN STRESS PERIOD   2
  ------------------------------------------------------------------------------

     CUMULATIVE VOLUMES      L**3       RATES FOR THIS TIME STEP      L**3/T
     ------------------                 ------------------------

           IN:                                      IN:
           ---                                      ---
             STORAGE =        3999.9570               STORAGE =         499.9720
       CONSTANT HEAD =        4859.0835         CONSTANT HEAD =         539.9204
               WELLS =           0.0000                 WELLS =           0.0000

            TOTAL IN =        8859.0410              TOTAL IN =        1039.8923

          OUT:                                     OUT:
          ----                                     ----
             STORAGE =       9.1145E-03               STORAGE =       1.2798E-04
       CONSTANT HEAD =        4859.0308         CONSTANT HEAD =         539.8923
               WELLS =        4000.0000                 WELLS =         500.0000

           TOTAL OUT =        8859.0400             TOTAL OUT =        1039.8925

            IN - OUT =       9.7656E-04              IN - OUT =      -1.2207E-04

 PERCENT DISCREPANCY =           0.00     PERCENT DISCREPANCY =           0.00






          TIME SUMMARY AT END OF TIME STEP   8 IN STRESS PERIOD    2
                    SECONDS     MINUTES      HOURS       DAYS        YEARS
                    -----------------------------------------------------------
   TIME STEP LENGTH  86400.      1440.0      24.000      1.0000     2.73785E-03
 STRESS PERIOD TIME 6.91200E+05  11520.      192.00      8.0000     2.19028E-02
         TOTAL TIME 7.77600E+05  12960.      216.00      9.0000     2.46407E-02
1
 
 SOLVING FOR HEAD 

 OUTPUT CONTROL FOR STRESS PERIOD    2   TIME STEP   9
    SAVE HEAD FOR ALL LAYERS
    SAVE DRAWDOWN FOR ALL LAYERS
    SAVE BUDGET
    PRINT HEAD FOR ALL LAYERS
    PRINT BUDGET
 UBDSV1 SAVING "         STORAGE" ON UNIT  53 AT TIME STEP  9, STRESS PERIOD   2
 UBDSV2 SAVING "   CONSTANT HEAD" ON UNIT  53 AT TIME STEP  9, STRESS PERIOD   2
 UBDSV1 SAVING "FLOW RIGHT FACE " ON UNIT  53 AT TIME STEP  9, STRESS PERIOD   2
 UBDSV1 SAVING "FLOW FRONT FACE " ON UNIT  53 AT TIME STEP  9, STRESS PERIOD   2
1
              HEAD IN LAYER   1 AT END OF TIME STEP   9 IN STRESS PERIOD    2
  ---------------------------------------------------------------------------

            1           2           3           4           5           6           7           8           9          10
           11          12          13          14          15          16          17          18          19          20
           21          22          23          24          25          26          27          28          29          30
           31          32          33          34          35          36          37          38          39          40
           41          42          43          44          45          46          47          48          49          50
 ........................................................................................................................
   1    10.00       9.960       9.905       9.850       9.804       9.748       9.694       9.637       9.560       9.498    
        9.461       9.424       9.383       9.342       9.276       9.203       9.124       9.062       9.034       9.002    
        8.963       8.929       8.893       8.847       8.783       8.671       8.536       8.405       8.253       8.102    
        7.888       7.549       7.151       6.732       6.263       5.831       5.465       5.124       4.659       4.155    
        3.725       3.300       2.713       2.157       1.768       1.377       1.050      0.8388      0.5562       0.000    
   2    10.00       9.959       9.910       9.855       9.807       9.755       9.694       9.620       9.546       9.498    
        9.465       9.432       9.400       9.349       9.273       9.198       9.126       9.065       9.035       8.999    
        8.959       8.933       8.904       8.856       8.783       8.676       8.540       8.403       8.261       8.110    
        7.878       7.529       7.111       6.638       6.165       5.748       5.421       5.087       4.616       4.143    
        3.709       3.197       2.667       2.226       1.839       1.475       1.101      0.7967      0.4253       0.000    
   3    10.00       9.956       9.908       9.858       9.809       9.750       9.675       9.604       9.557       9.513    
        9.475       9.446       9.415       9.366       9.291       9.197       9.121       9.071       9.033       8.997    
        8.964       8.936       8.908       8.847       8.770       8.662       8.534       8.431       8.280       8.101    
        7.803       7.399       6.957       6.500       6.063       5.673       5.380       5.037       4.529       4.069    
        3.707       3.239       2.749       2.325       1.922       1.554       1.112      0.6836      0.3006       0.000    
   4    10.00       9.959       9.911       9.856       9.796       9.728       9.656       9.604       9.564       9.522    
        9.489       9.465       9.430       9.378       9.309       9.207       9.122       9.076       9.035       9.001    
        8.964       8.931       8.895       8.832       8.754       8.650       8.526       8.411       8.294       8.070    
        7.688       7.199       6.729       6.381       6.051       5.670       5.292       4.859       4.431       4.093    
        3.769       3.353       2.860       2.440       2.017       1.571       1.061      0.6072      0.2828       0.000    
   5    10.00       9.956       9.906       9.843       9.781       9.718       9.655       9.610       9.569       9.533    
        9.504       9.478       9.438       9.378       9.297       9.205       9.133       9.082       9.041       8.995    
        8.953       8.919       8.874       8.809       8.735       8.619       8.496       8.396       8.279       7.998    
        7.504       6.973       6.587       6.320       6.019       5.630       5.201       4.773       4.466       4.178    
        3.882       3.450       2.935       2.567       2.135       1.551      0.9654      0.5604      0.2819       0.000    
   6    10.00       9.946       9.886       9.837       9.778       9.713       9.660       9.620       9.577       9.544    
        9.517       9.485       9.434       9.364       9.296       9.220       9.142       9.080       9.028       8.977    
        8.939       8.904       8.863       8.795       8.687       8.576       8.483       8.376       8.183       7.785    
        7.244       6.770       6.474       6.270       6.024       5.599       5.131       4.785       4.557       4.302    
        4.011       3.617       3.103       2.644       2.109       1.484      0.8655      0.4928      0.2753       0.000    
   7    10.00       9.930       9.874       9.827       9.770       9.723       9.673       9.631       9.595       9.560    
        9.525       9.480       9.418       9.351       9.289       9.227       9.142       9.060       9.005       8.963    
        8.926       8.888       8.846       8.758       8.648       8.557       8.456       8.291       7.977       7.480    
        6.968       6.598       6.411       6.247       5.938       5.523       5.210       4.901       4.648       4.467    
        4.170       3.760       3.207       2.612       1.953       1.236      0.7252      0.5003      0.2533       0.000    
   8    10.00       9.926       9.874       9.823       9.773       9.731       9.688       9.648       9.613       9.580    
        9.529       9.464       9.400       9.341       9.284       9.208       9.109       9.033       8.991       8.950    
        8.908       8.875       8.810       8.720       8.623       8.516       8.333       8.076       7.660       7.234    
        6.846       6.544       6.396       6.197       5.854       5.530       5.267       5.037       4.827       4.609    
        4.298       3.790       3.151       2.473       1.724       1.115      0.7674      0.4907      0.2260       0.000    
   9    10.00       9.930       9.871       9.821       9.785       9.750       9.709       9.669       9.629       9.592    
        9.529       9.450       9.384       9.325       9.257       9.173       9.086       9.018       8.973       8.932    
        8.894       8.843       8.757       8.675       8.579       8.438       8.180       7.800       7.394       7.086    
        6.775       6.542       6.374       6.111       5.792       5.536       5.345       5.161       4.978       4.738    
        4.350       3.818       3.138       2.380       1.690       1.154      0.7827      0.4866      0.2412       0.000    
  10    10.00       9.928       9.869       9.828       9.796       9.763       9.726       9.692       9.646       9.587    
        9.512       9.434       9.370       9.306       9.236       9.141       9.053       8.999       8.959       8.917    
        8.877       8.800       8.708       8.621       8.496       8.298       7.931       7.517       7.187       6.953    
        6.757       6.555       6.339       6.068       5.786       5.581       5.427       5.272       5.065       4.784    
        4.366       3.782       3.054       2.377       1.830       1.322      0.8379      0.5165      0.2721       0.000    
  11    10.00       9.919       9.874       9.839       9.807       9.778       9.745       9.700       9.637       9.572    
        9.497       9.421       9.360       9.278       9.184       9.103       9.039       8.987       8.948       8.902    
        8.836       8.741       8.618       8.495       8.293       8.007       7.682       7.389       7.108       6.924    
        6.757       6.505       6.254       6.050       5.851       5.686       5.527       5.323       5.076       4.747    
        4.354       3.837       3.097       2.477       1.991       1.502      0.9647      0.5113      0.2052       0.000    
  12    10.00       9.926       9.881       9.845       9.818       9.788       9.752       9.692       9.619       9.552    
        9.483       9.408       9.329       9.231       9.155       9.086       9.020       8.976       8.929       8.863    
        8.747       8.593       8.429       8.253       8.011       7.788       7.591       7.302       7.056       6.891    
        6.706       6.478       6.262       6.080       5.937       5.784       5.588       5.356       5.058       4.711    
        4.322       3.815       3.135       2.579       2.138       1.609       1.014      0.4831      0.1607       0.000    
  13    10.00       9.943       9.901       9.862       9.828       9.793       9.742       9.669       9.593       9.529    
        9.457       9.384       9.303       9.204       9.118       9.050       9.004       8.951       8.889       8.753    
        8.553       8.371       8.193       7.980       7.788       7.671       7.444       7.182       7.034       6.881    
        6.672       6.461       6.293       6.146       6.018       5.874       5.644       5.349       5.053       4.691    
        4.302       3.783       3.081       2.562       2.152       1.573      0.9440      0.4368      0.1262       0.000    
  14    10.00       9.958       9.921       9.880       9.839       9.786       9.714       9.638       9.571       9.499    
        9.429       9.362       9.268       9.162       9.086       9.030       8.963       8.892       8.759       8.533    
        8.323       8.157       7.930       7.750       7.651       7.521       7.294       7.127       6.993       6.842    
        6.649       6.489       6.368       6.227       6.085       5.927       5.666       5.337       5.018       4.649    
        4.230       3.605       2.944       2.524       2.023       1.468      0.9315      0.3992      0.1027       0.000    
  15    10.00       9.967       9.929       9.889       9.842       9.764       9.675       9.609       9.544       9.475    
        9.422       9.347       9.227       9.115       9.048       8.963       8.878       8.790       8.579       8.318    
        8.141       7.914       7.699       7.618       7.545       7.393       7.204       7.041       6.932       6.807    
        6.660       6.543       6.432       6.304       6.145       5.946       5.641       5.268       4.933       4.592    
        4.139       3.529       2.955       2.390       1.784       1.288      0.8013      0.3519      0.1056       0.000    
  16    10.00       9.976       9.939       9.892       9.820       9.725       9.649       9.595       9.537       9.467    
        9.398       9.295       9.162       9.058       8.967       8.871       8.812       8.650       8.351       8.110    
        7.926       7.696       7.601       7.540       7.428       7.245       7.088       6.991       6.919       6.813    
        6.687       6.582       6.489       6.350       6.153       5.907       5.543       5.203       4.936       4.566    
        4.049       3.392       2.735       2.109       1.595       1.105      0.6830      0.3342      0.1127       0.000    
  17    10.00       9.976       9.938       9.876       9.787       9.693       9.629       9.581       9.517       9.442    
        9.332       9.206       9.090       8.981       8.873       8.783       8.653       8.390       8.109       7.934    
        7.750       7.593       7.516       7.407       7.236       7.092       7.033       6.987       6.922       6.812    
        6.699       6.605       6.515       6.387       6.116       5.777       5.464       5.218       4.959       4.493    
        3.805       3.139       2.515       1.902       1.364      0.8941      0.5726      0.2990      0.1228       0.000    
  18    10.00       9.971       9.926       9.852       9.743       9.668       9.618       9.554       9.483       9.381    
        9.252       9.143       9.030       8.890       8.754       8.612       8.426       8.160       7.943       7.784    
        7.626       7.488       7.375       7.224       7.095       7.040       7.013       6.981       6.914       6.816    
        6.720       6.628       6.515       6.309       6.029       5.736       5.462       5.239       4.879       4.261    
        3.561       2.858       2.194       1.693       1.265      0.8383      0.4918      0.2473      0.1185       0.000    
  19    10.00       9.964       9.915       9.809       9.700       9.656       9.603       9.524       9.438       9.332    
        9.216       9.115       8.957       8.752       8.594       8.450       8.224       7.974       7.820       7.694    
        7.529       7.364       7.238       7.114       7.041       7.008       6.985       6.949       6.890       6.819    
        6.742       6.641       6.474       6.260       6.010       5.719       5.465       5.148       4.547       3.917    
        3.357       2.632       2.004       1.607       1.183      0.7562      0.4439      0.2517      0.1289       0.000    
  20    10.00       9.956       9.874       9.765       9.687       9.640       9.583       9.500       9.405       9.309    
        9.192       9.042       8.813       8.613       8.474       8.296       8.068       7.927       7.785       7.608    
        7.425       7.274       7.141       7.046       6.992       6.959       6.922       6.895       6.857       6.811    
        6.745       6.636       6.447       6.222       5.958       5.697       5.382       4.821       4.185       3.689    
        3.088       2.424       1.955       1.571       1.143      0.6707      0.3875      0.2620      0.1350       0.000    
  21    10.00       9.927       9.840       9.749       9.673       9.624       9.562       9.467       9.373       9.284    
        9.130       8.906       8.677       8.529       8.374       8.186       8.014       7.879       7.707       7.517    
        7.336       7.187       7.068       6.970       6.901       6.850       6.829       6.823       6.804       6.779    
        6.729       6.597       6.386       6.152       5.879       5.591       5.116       4.537       4.036       3.436    
        2.869       2.348       1.952       1.564      0.9621      0.5425      0.3921      0.2958      0.1418       0.000    
  22    10.00       9.908       9.804       9.724       9.664       9.605       9.520       9.432       9.351       9.228    
        9.034       8.786       8.606       8.473       8.301       8.106       7.938       7.791       7.630       7.447    
        7.266       7.108       6.953       6.809       6.722       6.701       6.713       6.721       6.734       6.724    
        6.669       6.513       6.321       6.068       5.778       5.492       5.001       4.436       3.785       3.208    
        2.799       2.383       1.907       1.259      0.7493      0.5404      0.4108      0.2734      0.1011       0.000    
  23    10.00       9.882       9.781       9.719       9.656       9.569       9.478       9.413       9.312       9.161    
        8.937       8.727       8.597       8.431       8.205       8.007       7.872       7.750       7.598       7.400    
        7.208       7.023       6.804       6.542       6.346       6.389       6.515       6.592       6.645       6.655    
        6.592       6.434       6.234       6.003       5.721       5.390       4.892       4.199       3.552       3.146    
        2.770       2.246       1.567       1.013      0.7368      0.5508      0.3939      0.2323      9.2446E-02   0.000    
  24    10.00       9.865       9.792       9.718       9.629       9.541       9.471       9.399       9.302       9.104    
        8.895       8.739       8.591       8.368       8.115       7.972       7.857       7.737       7.563       7.377    
        7.207       6.974       6.622       6.122       5.502       5.778       6.170       6.425       6.548       6.570    
        6.505       6.355       6.171       5.919       5.622       5.223       4.607       3.960       3.475       3.052    
        2.591       2.010       1.404      0.9817      0.7378      0.5364      0.3592      0.2516      0.1235       0.000    
  25    10.00       9.881       9.807       9.713       9.622       9.540       9.470       9.405       9.260       9.068    
        8.907       8.747       8.552       8.303       8.116       7.989       7.861       7.718       7.558       7.399    
        7.204       6.983       6.483       5.519       3.758       5.114       5.849       6.261       6.467       6.506    
        6.433       6.297       6.103       5.785       5.412       4.911       4.352       3.844       3.424       2.928    
        2.373       1.818       1.309      0.9725      0.7646      0.5573      0.3784      0.2635      0.1640       0.000    
  26    10.00       9.897       9.826       9.728       9.629       9.555       9.480       9.384       9.241       9.105    
        8.952       8.729       8.489       8.287       8.147       8.025       7.878       7.702       7.547       7.414    
        7.255       7.042       6.624       5.936       5.158       5.544       6.005       6.302       6.470       6.467    
        6.358       6.225       5.983       5.637       5.247       4.778       4.169       3.694       3.306       2.709    
        2.085       1.600       1.296       1.062      0.8245      0.6015      0.4124      0.2862      0.1672       0.000    
  27    10.00       9.919       9.831       9.743       9.658       9.570       9.486       9.388       9.269       9.143    
        8.944       8.691       8.478       8.310       8.193       8.052       7.860       7.678       7.560       7.452    
        7.332       7.144       6.840       6.456       6.079       6.097       6.280       6.449       6.509       6.424    
        6.303       6.163       5.904       5.543       5.104       4.493       3.939       3.557       2.980       2.361    
        1.880       1.570       1.341       1.136      0.9013      0.6565      0.4480      0.3150      0.1987       0.000    
  28    10.00       9.924       9.853       9.773       9.689       9.596       9.503       9.407       9.301       9.151    
        8.916       8.691       8.503       8.337       8.211       8.068       7.913       7.745       7.588       7.481    
        7.388       7.258       7.073       6.819       6.613       6.501       6.532       6.586       6.533       6.412    
        6.263       6.088       5.791       5.370       4.827       4.223       3.764       3.242       2.651       2.217    
        1.876       1.613       1.389       1.175      0.9470      0.7164      0.5082      0.3586      0.2049       0.000    
  29    10.00       9.930       9.860       9.797       9.715       9.631       9.539       9.439       9.321       9.118    
        8.896       8.702       8.519       8.376       8.229       8.077       7.937       7.805       7.662       7.530    
        7.432       7.335       7.219       7.079       6.892       6.789       6.736       6.674       6.566       6.375    
        6.184       5.919       5.610       5.100       4.491       3.992       3.548       3.016       2.548       2.233    
        1.957       1.669       1.415       1.210       1.004      0.7575      0.5369      0.3746      0.2077       0.000    
  30    10.00       9.939       9.881       9.826       9.752       9.668       9.584       9.469       9.308       9.120    
        8.892       8.678       8.526       8.380       8.236       8.100       7.987       7.870       7.733       7.592    
        7.479       7.398       7.305       7.212       7.092       6.948       6.845       6.718       6.544       6.320    
        6.032       5.660       5.298       4.815       4.364       3.911       3.444       2.952       2.602       2.317    
        1.990       1.701       1.481       1.247       1.002      0.7837      0.5722      0.3978      0.2235       0.000    
  31    10.00       9.952       9.904       9.851       9.795       9.726       9.630       9.483       9.295       9.096    
        8.874       8.680       8.540       8.394       8.258       8.129       8.019       7.924       7.782       7.644    
        7.542       7.457       7.377       7.267       7.134       7.003       6.877       6.733       6.512       6.209    
        5.802       5.402       5.071       4.712       4.296       3.825       3.358       2.960       2.716       2.444    
        2.081       1.764       1.513       1.276       1.049      0.8242      0.6062      0.4186      0.2167       0.000    
  32    10.00       9.958       9.923       9.877       9.824       9.757       9.652       9.481       9.307       9.116    
        8.885       8.704       8.569       8.412       8.261       8.152       8.058       7.943       7.823       7.692    
        7.578       7.485       7.378       7.237       7.119       7.032       6.897       6.691       6.393       6.021    
        5.616       5.266       4.956       4.630       4.229       3.811       3.446       3.109       2.829       2.517    
        2.182       1.869       1.605       1.334       1.086      0.8960      0.6682      0.4106      0.1833       0.000    
  33    10.00       9.964       9.937       9.897       9.842       9.770       9.631       9.461       9.321       9.145    
        8.930       8.754       8.587       8.402       8.265       8.178       8.093       7.972       7.842       7.709    
        7.585       7.473       7.328       7.202       7.120       7.031       6.813       6.524       6.232       5.911    
        5.535       5.243       4.932       4.549       4.184       3.818       3.524       3.259       2.939       2.596    
        2.307       2.012       1.722       1.442       1.182      0.9697      0.7146      0.4124      0.1792       0.000    
  34    10.00       9.970       9.949       9.915       9.842       9.734       9.604       9.486       9.339       9.163    
        8.974       8.776       8.578       8.395       8.286       8.215       8.118       7.993       7.834       7.695    
        7.566       7.417       7.274       7.170       7.081       6.929       6.675       6.421       6.144       5.784    
        5.464       5.241       4.933       4.570       4.218       3.887       3.611       3.347       3.020       2.711    
        2.454       2.171       1.854       1.575       1.311       1.068      0.7640      0.4638      0.2432       0.000    
  35    10.00       9.975       9.949       9.899       9.808       9.701       9.608       9.504       9.383       9.187    
        8.973       8.766       8.563       8.416       8.323       8.244       8.128       7.986       7.819       7.651    
        7.471       7.322       7.183       7.089       6.993       6.845       6.595       6.312       6.001       5.642    
        5.413       5.175       4.876       4.614       4.324       3.981       3.681       3.462       3.155       2.828    
        2.580       2.290       1.973       1.698       1.424       1.158      0.8756      0.5803      0.2871       0.000    
  36    10.00       9.969       9.926       9.871       9.786       9.686       9.607       9.515       9.381       9.187    
        8.947       8.722       8.580       8.472       8.375       8.263       8.120       7.963       7.764       7.504    
        7.314       7.199       7.090       7.011       6.922       6.742       6.469       6.173       5.805       5.503    
        5.319       5.131       4.881       4.633       4.393       4.089       3.792       3.561       3.288       2.932    
        2.660       2.337       2.021       1.811       1.545       1.249      0.9658      0.6572      0.3215       0.000    
  37    10.00       9.951       9.905       9.849       9.765       9.678       9.587       9.498       9.372       9.142    
        8.889       8.719       8.637       8.528       8.400       8.279       8.083       7.878       7.597       7.323    
        7.224       7.128       7.022       6.933       6.824       6.606       6.342       5.956       5.635       5.451    
        5.300       5.106       4.863       4.671       4.428       4.141       3.910       3.689       3.382       2.991    
        2.635       2.332       2.112       1.895       1.628       1.347       1.064      0.7248      0.3980       0.000    
  38    10.00       9.944       9.883       9.825       9.750       9.666       9.568       9.471       9.323       9.105    
        8.916       8.784       8.676       8.569       8.419       8.201       7.969       7.713       7.397       7.233    
        7.154       7.023       6.903       6.833       6.701       6.475       6.097       5.750       5.593       5.458    
        5.301       5.099       4.883       4.693       4.457       4.198       4.009       3.784       3.393       2.963    
        2.654       2.401       2.183       1.959       1.723       1.437       1.155      0.8382      0.4142       0.000    
  39    10.00       9.927       9.867       9.814       9.742       9.644       9.539       9.437       9.298       9.119    
        8.970       8.866       8.740       8.581       8.336       8.051       7.789       7.484       7.270       7.174    
        7.036       6.882       6.794       6.724       6.596       6.294       5.933       5.740       5.601       5.463    
        5.286       5.098       4.891       4.703       4.525       4.313       4.065       3.793       3.408       3.007    
        2.682       2.421       2.249       2.061       1.795       1.513       1.226      0.8725      0.4088       0.000    
  40    10.00       9.918       9.861       9.806       9.730       9.629       9.526       9.425       9.301       9.150    
        9.025       8.929       8.758       8.492       8.176       7.891       7.612       7.358       7.210       7.074    
        6.911       6.782       6.714       6.620       6.451       6.184       5.952       5.765       5.613       5.470    
        5.298       5.097       4.904       4.748       4.593       4.379       4.093       3.808       3.417       2.988    
        2.683       2.476       2.287       2.127       1.847       1.538       1.276      0.8750      0.4073       0.000    
  41    10.00       9.925       9.858       9.791       9.709       9.629       9.543       9.448       9.324       9.185    
        9.064       8.939       8.704       8.379       8.055       7.790       7.520       7.282       7.132       6.980    
        6.816       6.707       6.625       6.516       6.345       6.153       6.001       5.822       5.633       5.466    
        5.302       5.123       4.939       4.804       4.639       4.426       4.140       3.747       3.299       2.968    
        2.747       2.547       2.352       2.128       1.837       1.541       1.317      0.9322      0.4227       0.000    
  42    10.00       9.924       9.848       9.789       9.728       9.654       9.561       9.452       9.345       9.237    
        9.073       8.851       8.575       8.265       7.964       7.724       7.458       7.229       7.065       6.893    
        6.741       6.644       6.552       6.454       6.305       6.176       6.049       5.846       5.634       5.485    
        5.353       5.157       4.961       4.830       4.678       4.451       4.099       3.636       3.226       2.980    
        2.814       2.635       2.386       2.088       1.809       1.578       1.345      0.9833      0.4851       0.000    
  43    10.00       9.917       9.853       9.802       9.753       9.681       9.589       9.484       9.363       9.187    
        8.969       8.738       8.481       8.159       7.890       7.668       7.429       7.196       6.989       6.827    
        6.693       6.594       6.519       6.440       6.316       6.185       6.056       5.845       5.662       5.553    
        5.392       5.182       4.994       4.859       4.681       4.387       3.981       3.543       3.244       3.056    
        2.878       2.673       2.367       2.062       1.815       1.592       1.391      0.9972      0.4557       0.000    
  44    10.00       9.917       9.860       9.814       9.756       9.701       9.624       9.481       9.296       9.090    
        8.906       8.673       8.363       8.094       7.881       7.624       7.363       7.113       6.908       6.767    
        6.669       6.587       6.513       6.432       6.326       6.192       6.018       5.845       5.722       5.593    
        5.449       5.266       5.050       4.845       4.628       4.299       3.874       3.513       3.282       3.100    
        2.921       2.677       2.382       2.118       1.854       1.614       1.369      0.9003      0.4140       0.000    
  45    10.00       9.926       9.873       9.813       9.756       9.707       9.579       9.408       9.219       9.042    
        8.891       8.577       8.256       8.060       7.829       7.543       7.258       7.027       6.862       6.752    
        6.679       6.602       6.521       6.426       6.309       6.177       6.031       5.899       5.791       5.657    
        5.490       5.301       5.078       4.820       4.560       4.207       3.808       3.524       3.348       3.161    
        2.922       2.643       2.390       2.149       1.915       1.676       1.278      0.8000      0.4026       0.000    
  46    10.00       9.940       9.883       9.813       9.747       9.651       9.510       9.380       9.222       9.032    
        8.779       8.480       8.223       7.975       7.727       7.451       7.186       7.016       6.881       6.776    
        6.702       6.628       6.524       6.406       6.293       6.183       6.068       5.947       5.839       5.720    
        5.570       5.370       5.118       4.811       4.441       4.074       3.779       3.578       3.395       3.200    
        2.917       2.620       2.368       2.177       1.954       1.643       1.190      0.7641      0.3767       0.000    
  47    10.00       9.951       9.897       9.827       9.713       9.586       9.466       9.364       9.218       8.967    
        8.664       8.390       8.166       7.959       7.696       7.395       7.162       7.001       6.892       6.805    
        6.724       6.636       6.527       6.404       6.295       6.208       6.114       5.995       5.870       5.754    
        5.622       5.455       5.120       4.690       4.329       4.066       3.819       3.646       3.484       3.213    
        2.869       2.555       2.327       2.195       1.948       1.567       1.125      0.7370      0.3724       0.000    
  48    10.00       9.956       9.900       9.795       9.678       9.569       9.448       9.344       9.196       8.913    
        8.582       8.353       8.169       7.915       7.609       7.338       7.163       7.001       6.893       6.824    
        6.742       6.636       6.519       6.406       6.316       6.248       6.164       6.032       5.887       5.762    
        5.625       5.423       5.074       4.717       4.396       4.105       3.885       3.708       3.501       3.157    
        2.787       2.545       2.363       2.130       1.806       1.468       1.089      0.7423      0.3930       0.000    
  49    10.00       9.953       9.869       9.767       9.679       9.562       9.444       9.334       9.148       8.848    
        8.552       8.333       8.103       7.846       7.616       7.363       7.119       6.969       6.902       6.838    
        6.760       6.639       6.503       6.405       6.337       6.286       6.189       6.037       5.885       5.771    
        5.622       5.357       5.050       4.797       4.528       4.207       3.922       3.703       3.459       3.091    
        2.793       2.581       2.330       1.994       1.707       1.402       1.071      0.7545      0.3842       0.000    
  50    10.00       9.941       9.848       9.755       9.684       9.574       9.444       9.304       9.103       8.866    
        8.566       8.273       8.034       7.829       7.644       7.361       7.082       6.969       6.911       6.848    
        6.773       6.636       6.491       6.402       6.348       6.302       6.193       6.030       5.884       5.769    
        5.606       5.327       5.091       4.874       4.582       4.263       3.974       3.684       3.333       3.007    
        2.850       2.626       2.260       1.923       1.682       1.392       1.104      0.7369      0.3027       0.000    

 HEAD WILL BE SAVED ON UNIT   51 AT END OF TIME STEP   9, STRESS PERIOD    2

 DRAWDOWN WILL BE SAVED ON UNIT   52 AT END OF TIME STEP   9, STRESS PERIOD    2
1
  VOLUMETRIC BUDGET FOR ENTIRE MODEL AT END OF TIME STEP  9 IN STRESS PERIOD   2
  ------------------------------------------------------------------------------

     CUMULATIVE VOLUMES      L**3       RATES FOR THIS TIME STEP      L**3/T
     ------------------                 ------------------------

           IN:                                      IN:
           ---                                      ---
             STORAGE =        4499.9058               STORAGE =         499.9487
       CONSTANT HEAD =        5399.0273         CONSTANT HEAD =         539.9438
               WELLS =           0.0000                 WELLS =           0.0000

            TOTAL IN =        9898.9336              TOTAL IN =        1039.8925

          OUT:                                     OUT:
          ----                                     ----
             STORAGE =       9.2089E-03               STORAGE =       9.4383E-05
       CONSTANT HEAD =        5398.9229         CONSTANT HEAD =         539.8923
               WELLS =        4500.0000                 WELLS =         500.0000

           TOTAL OUT =        9898.9316             TOTAL OUT =        1039.8923

            IN - OUT =       1.9531E-03              IN - OUT =       1.2207E-04

 PERCENT DISCREPANCY =           0.00     PERCENT DISCREPANCY =           0.00






          TIME SUMMARY AT END OF TIME STEP   9 IN STRESS PERIOD    2
                    SECONDS     MINUTES      HOURS       DAYS        YEARS
                    -----------------------------------------------------------
   TIME STEP LENGTH  86400.      1440.0      24.000      1.0000     2.73785E-03
 STRESS PERIOD TIME 7.77600E+05  12960.      216.00      9.0000     2.46407E-02
         TOTAL TIME 8.64000E+05  14400.      240.00      10.000     2.73785E-02
1
 
 SOLVING FOR HEAD 

 OUTPUT CONTROL FOR STRESS PERIOD    2   TIME STEP  10
    SAVE HEAD FOR ALL LAYERS
    SAVE DRAWDOWN FOR ALL LAYERS
    SAVE BUDGET
    PRINT HEAD FOR ALL LAYERS
    PRINT BUDGET
 UBDSV1 SAVING "         STORAGE" ON UNIT  53 AT TIME STEP 10, STRESS PERIOD   2
 UBDSV2 SAVING "   CONSTANT HEAD" ON UNIT  53 AT TIME STEP 10, STRESS PERIOD   2
 UBDSV1 SAVING "FLOW RIGHT FACE " ON UNIT  53 AT TIME STEP 10, STRESS PERIOD   2
 UBDSV1 SAVING "FLOW FRONT FACE " ON UNIT  53 AT TIME STEP 10, STRESS PERIOD   2
1
              HEAD IN LAYER   1 AT END OF TIME STEP  10 IN STRESS PERIOD    2
  ---------------------------------------------------------------------------

            1           2           3           4           5           6           7           8           9          10
           11          12          13          14          15          16          17          18          19          20
           21          22          23          24          25          26          27          28          29          30
           31          32          33          34          35          36          37          38          39          40
           41          42          43          44          45          46          47          48          49          50
 ........................................................................................................................
   1    10.00       9.960       9.905       9.850       9.804       9.748       9.694       9.637       9.560       9.498    
        9.461       9.424       9.383       9.342       9.275       9.203       9.124       9.062       9.034       9.002    
        8.963       8.929       8.893       8.847       8.783       8.671       8.536       8.404       8.253       8.102    
        7.888       7.549       7.151       6.732       6.263       5.831       5.465       5.124       4.659       4.155    
        3.725       3.300       2.713       2.157       1.768       1.377       1.050      0.8388      0.5562       0.000    
   2    10.00       9.959       9.910       9.855       9.807       9.755       9.694       9.620       9.546       9.498    
        9.465       9.432       9.400       9.349       9.273       9.198       9.126       9.065       9.035       8.999    
        8.959       8.933       8.904       8.856       8.783       8.676       8.540       8.403       8.260       8.110    
        7.878       7.529       7.111       6.638       6.165       5.748       5.421       5.087       4.616       4.143    
        3.709       3.197       2.667       2.226       1.839       1.475       1.101      0.7967      0.4253       0.000    
   3    10.00       9.956       9.908       9.858       9.809       9.750       9.675       9.604       9.557       9.513    
        9.475       9.446       9.415       9.366       9.290       9.197       9.121       9.071       9.033       8.997    
        8.964       8.936       8.907       8.847       8.770       8.662       8.534       8.431       8.280       8.100    
        7.803       7.399       6.957       6.500       6.063       5.673       5.380       5.037       4.529       4.069    
        3.707       3.239       2.749       2.325       1.922       1.554       1.112      0.6836      0.3006       0.000    
   4    10.00       9.959       9.911       9.856       9.796       9.728       9.656       9.604       9.564       9.522    
        9.489       9.464       9.430       9.378       9.309       9.207       9.122       9.076       9.035       9.001    
        8.964       8.931       8.895       8.832       8.753       8.650       8.526       8.411       8.294       8.070    
        7.688       7.199       6.729       6.380       6.051       5.670       5.292       4.859       4.431       4.093    
        3.769       3.352       2.860       2.440       2.017       1.571       1.061      0.6072      0.2828       0.000    
   5    10.00       9.956       9.906       9.843       9.781       9.718       9.655       9.610       9.569       9.533    
        9.504       9.478       9.438       9.378       9.297       9.205       9.133       9.082       9.041       8.995    
        8.953       8.919       8.874       8.809       8.735       8.619       8.496       8.396       8.279       7.998    
        7.504       6.973       6.586       6.320       6.018       5.630       5.201       4.773       4.466       4.178    
        3.882       3.450       2.935       2.567       2.135       1.551      0.9654      0.5604      0.2819       0.000    
   6    10.00       9.946       9.886       9.837       9.778       9.713       9.660       9.620       9.577       9.544    
        9.517       9.485       9.434       9.364       9.296       9.220       9.142       9.080       9.028       8.977    
        8.939       8.904       8.863       8.794       8.687       8.576       8.483       8.375       8.182       7.785    
        7.244       6.769       6.474       6.269       6.024       5.598       5.130       4.784       4.557       4.301    
        4.011       3.617       3.103       2.644       2.109       1.484      0.8655      0.4928      0.2753       0.000    
   7    10.00       9.930       9.874       9.827       9.770       9.723       9.673       9.631       9.595       9.560    
        9.525       9.480       9.418       9.351       9.289       9.227       9.142       9.060       9.005       8.962    
        8.926       8.888       8.845       8.758       8.648       8.556       8.456       8.291       7.977       7.480    
        6.967       6.598       6.411       6.247       5.938       5.523       5.209       4.900       4.648       4.466    
        4.169       3.760       3.207       2.612       1.953       1.236      0.7252      0.5003      0.2533       0.000    
   8    10.00       9.926       9.874       9.823       9.773       9.731       9.688       9.648       9.613       9.580    
        9.529       9.464       9.400       9.341       9.283       9.208       9.109       9.032       8.990       8.950    
        8.907       8.874       8.810       8.719       8.622       8.516       8.333       8.075       7.659       7.233    
        6.845       6.543       6.395       6.196       5.853       5.529       5.266       5.037       4.827       4.609    
        4.298       3.790       3.151       2.473       1.724       1.115      0.7674      0.4907      0.2260       0.000    
   9    10.00       9.930       9.871       9.821       9.785       9.750       9.708       9.669       9.629       9.591    
        9.529       9.450       9.384       9.325       9.257       9.173       9.085       9.017       8.973       8.931    
        8.893       8.842       8.756       8.674       8.578       8.437       8.179       7.798       7.392       7.085    
        6.774       6.540       6.373       6.110       5.791       5.535       5.344       5.160       4.978       4.738    
        4.350       3.818       3.138       2.380       1.690       1.154      0.7827      0.4866      0.2412       0.000    
  10    10.00       9.928       9.869       9.828       9.796       9.762       9.726       9.691       9.646       9.587    
        9.512       9.433       9.370       9.306       9.236       9.141       9.053       8.998       8.958       8.916    
        8.876       8.799       8.707       8.620       8.495       8.296       7.929       7.515       7.184       6.950    
        6.754       6.553       6.337       6.066       5.785       5.580       5.426       5.271       5.064       4.784    
        4.365       3.782       3.054       2.377       1.830       1.322      0.8379      0.5165      0.2721       0.000    
  11    10.00       9.919       9.874       9.839       9.807       9.778       9.745       9.700       9.637       9.572    
        9.497       9.421       9.360       9.278       9.184       9.102       9.038       8.987       8.947       8.901    
        8.835       8.739       8.616       8.492       8.289       8.003       7.677       7.384       7.104       6.920    
        6.753       6.501       6.251       6.047       5.849       5.684       5.525       5.322       5.076       4.747    
        4.354       3.837       3.097       2.477       1.991       1.502      0.9647      0.5113      0.2052       0.000    
  12    10.00       9.926       9.881       9.845       9.818       9.788       9.752       9.692       9.618       9.552    
        9.483       9.408       9.328       9.231       9.154       9.085       9.019       8.975       8.928       8.862    
        8.745       8.590       8.424       8.247       8.003       7.780       7.584       7.295       7.049       6.885    
        6.701       6.474       6.258       6.076       5.934       5.782       5.587       5.355       5.057       4.711    
        4.322       3.815       3.135       2.579       2.138       1.609       1.014      0.4831      0.1607       0.000    
  13    10.00       9.943       9.901       9.862       9.828       9.793       9.742       9.669       9.593       9.529    
        9.457       9.384       9.302       9.204       9.117       9.049       9.003       8.950       8.887       8.751    
        8.549       8.364       8.185       7.970       7.776       7.659       7.432       7.170       7.023       6.872    
        6.664       6.454       6.287       6.141       6.014       5.871       5.642       5.347       5.052       4.691    
        4.302       3.783       3.081       2.562       2.152       1.573      0.9440      0.4368      0.1262       0.000    
  14    10.00       9.958       9.921       9.880       9.839       9.786       9.714       9.637       9.571       9.499    
        9.428       9.362       9.267       9.162       9.085       9.029       8.961       8.890       8.756       8.527    
        8.315       8.146       7.916       7.734       7.634       7.505       7.278       7.111       6.977       6.829    
        6.638       6.479       6.360       6.221       6.080       5.924       5.664       5.336       5.018       4.649    
        4.230       3.605       2.944       2.524       2.023       1.468      0.9315      0.3992      0.1027       0.000    
  15    10.00       9.967       9.929       9.889       9.842       9.764       9.675       9.609       9.543       9.475    
        9.422       9.347       9.226       9.114       9.047       8.961       8.875       8.786       8.573       8.308    
        8.128       7.897       7.678       7.597       7.524       7.371       7.182       7.019       6.911       6.790    
        6.646       6.531       6.422       6.297       6.140       5.942       5.639       5.267       4.933       4.592    
        4.138       3.529       2.955       2.390       1.784       1.288      0.8013      0.3519      0.1056       0.000    
  16    10.00       9.976       9.939       9.892       9.820       9.725       9.649       9.595       9.537       9.467    
        9.398       9.295       9.161       9.056       8.965       8.868       8.808       8.644       8.340       8.094    
        7.906       7.672       7.576       7.515       7.402       7.217       7.060       6.965       6.896       6.793    
        6.670       6.568       6.477       6.341       6.147       5.903       5.541       5.202       4.935       4.565    
        4.049       3.392       2.735       2.109       1.595       1.105      0.6830      0.3342      0.1127       0.000    
  17    10.00       9.976       9.938       9.876       9.787       9.692       9.629       9.581       9.517       9.442    
        9.331       9.205       9.088       8.978       8.870       8.779       8.646       8.379       8.091       7.912    
        7.724       7.564       7.487       7.377       7.203       7.058       7.000       6.957       6.895       6.790    
        6.681       6.590       6.502       6.377       6.110       5.774       5.462       5.217       4.959       4.493    
        3.805       3.139       2.515       1.902       1.364      0.8941      0.5726      0.2990      0.1228       0.000    
  18    10.00       9.971       9.926       9.852       9.743       9.668       9.618       9.554       9.483       9.381    
        9.252       9.142       9.028       8.887       8.749       8.604       8.414       8.141       7.919       7.755    
        7.594       7.455       7.339       7.187       7.057       7.003       6.977       6.947       6.883       6.790    
        6.699       6.611       6.501       6.300       6.024       5.733       5.460       5.238       4.879       4.261    
        3.561       2.858       2.194       1.693       1.265      0.8383      0.4918      0.2473      0.1185       0.000    
  19    10.00       9.964       9.915       9.809       9.700       9.656       9.603       9.524       9.438       9.331    
        9.215       9.114       8.954       8.747       8.586       8.438       8.207       7.949       7.791       7.662    
        7.493       7.325       7.197       7.072       7.000       6.969       6.947       6.912       6.856       6.790    
        6.718       6.622       6.461       6.251       6.005       5.716       5.463       5.147       4.547       3.917    
        3.357       2.632       2.004       1.607       1.183      0.7562      0.4439      0.2517      0.1289       0.000    
  20    10.00       9.956       9.874       9.765       9.687       9.640       9.583       9.500       9.405       9.309    
        9.191       9.040       8.808       8.605       8.463       8.280       8.046       7.900       7.754       7.572    
        7.385       7.231       7.096       7.002       6.949       6.916       6.879       6.855       6.819       6.778    
        6.717       6.614       6.433       6.213       5.953       5.695       5.381       4.821       4.185       3.689    
        3.088       2.424       1.955       1.571       1.143      0.6707      0.3875      0.2620      0.1350       0.000    
  21    10.00       9.927       9.840       9.749       9.673       9.624       9.562       9.467       9.373       9.283    
        9.129       8.904       8.671       8.519       8.361       8.167       7.989       7.849       7.673       7.478    
        7.293       7.141       7.021       6.923       6.854       6.803       6.783       6.778       6.762       6.741    
        6.698       6.574       6.373       6.144       5.874       5.589       5.115       4.537       4.036       3.436    
        2.869       2.348       1.952       1.564      0.9621      0.5425      0.3921      0.2958      0.1418       0.000    
  22    10.00       9.908       9.804       9.724       9.664       9.605       9.520       9.432       9.350       9.228    
        9.033       8.782       8.599       8.463       8.285       8.084       7.911       7.759       7.593       7.405    
        7.220       7.059       6.903       6.757       6.671       6.650       6.663       6.672       6.688       6.683    
        6.635       6.490       6.306       6.060       5.774       5.490       5.001       4.436       3.785       3.208    
        2.799       2.383       1.907       1.259      0.7493      0.5404      0.4108      0.2734      0.1011       0.000    
  23    10.00       9.882       9.781       9.719       9.656       9.569       9.477       9.413       9.311       9.160    
        8.935       8.722       8.590       8.420       8.186       7.982       7.842       7.716       7.559       7.356    
        7.160       6.973       6.751       6.486       6.289       6.332       6.459       6.539       6.595       6.611    
        6.557       6.410       6.219       5.995       5.717       5.388       4.891       4.199       3.552       3.146    
        2.770       2.246       1.567       1.013      0.7368      0.5508      0.3939      0.2323      9.2446E-02   0.000    
  24    10.00       9.865       9.792       9.718       9.629       9.541       9.470       9.399       9.302       9.102    
        8.892       8.734       8.583       8.354       8.094       7.945       7.827       7.703       7.524       7.332    
        7.158       6.922       6.566       6.062       5.438       5.714       6.107       6.366       6.495       6.525    
        6.470       6.332       6.156       5.911       5.617       5.221       4.607       3.960       3.475       3.052    
        2.591       2.010       1.404      0.9817      0.7378      0.5364      0.3592      0.2516      0.1235       0.000    
  25    10.00       9.881       9.807       9.713       9.622       9.540       9.470       9.404       9.259       9.066    
        8.904       8.742       8.543       8.288       8.095       7.964       7.831       7.683       7.518       7.355    
        7.156       6.931       6.425       5.455       3.688       5.043       5.779       6.196       6.411       6.462    
        6.401       6.275       6.090       5.778       5.409       4.910       4.351       3.844       3.424       2.928    
        2.373       1.818       1.309      0.9725      0.7646      0.5573      0.3784      0.2635      0.1640       0.000    
  26    10.00       9.897       9.826       9.727       9.629       9.555       9.480       9.383       9.240       9.104    
        8.949       8.724       8.479       8.272       8.127       8.001       7.849       7.667       7.507       7.370    
        7.208       6.991       6.566       5.871       5.087       5.470       5.931       6.233       6.413       6.428    
        6.332       6.206       5.972       5.631       5.244       4.777       4.169       3.694       3.306       2.709    
        2.085       1.600       1.296       1.062      0.8245      0.6015      0.4124      0.2862      0.1672       0.000    
  27    10.00       9.919       9.831       9.743       9.658       9.570       9.486       9.388       9.268       9.141    
        8.942       8.685       8.469       8.297       8.176       8.030       7.831       7.642       7.521       7.410    
        7.287       7.094       6.784       6.394       6.010       6.023       6.207       6.384       6.461       6.393    
        6.281       6.147       5.895       5.539       5.102       4.493       3.939       3.557       2.980       2.361    
        1.880       1.570       1.341       1.136      0.9013      0.6565      0.4480      0.3150      0.1987       0.000    
  28    10.00       9.924       9.853       9.773       9.689       9.596       9.503       9.407       9.300       9.150    
        8.913       8.686       8.495       8.325       8.196       8.048       7.887       7.714       7.551       7.441    
        7.345       7.212       7.022       6.761       6.549       6.433       6.468       6.533       6.494       6.385    
        6.244       6.075       5.784       5.367       4.826       4.222       3.764       3.242       2.651       2.217    
        1.876       1.613       1.389       1.175      0.9470      0.7164      0.5082      0.3586      0.2049       0.000    
  29    10.00       9.930       9.860       9.797       9.715       9.630       9.539       9.439       9.320       9.116    
        8.893       8.698       8.511       8.366       8.215       8.059       7.914       7.777       7.629       7.492    
        7.392       7.292       7.173       7.028       6.834       6.731       6.685       6.632       6.536       6.356    
        6.171       5.911       5.606       5.098       4.491       3.992       3.548       3.016       2.548       2.233    
        1.957       1.669       1.415       1.210       1.004      0.7575      0.5369      0.3746      0.2077       0.000    
  30    10.00       9.939       9.881       9.826       9.752       9.668       9.584       9.469       9.307       9.118    
        8.889       8.673       8.520       8.371       8.224       8.084       7.967       7.846       7.704       7.559    
        7.442       7.359       7.263       7.167       7.047       6.908       6.812       6.690       6.524       6.307    
        6.024       5.657       5.296       4.814       4.364       3.911       3.444       2.952       2.602       2.317    
        1.990       1.701       1.481       1.247       1.002      0.7837      0.5722      0.3978      0.2235       0.000    
  31    10.00       9.952       9.903       9.851       9.795       9.726       9.629       9.483       9.295       9.095    
        8.871       8.676       8.534       8.386       8.248       8.116       8.002       7.905       7.758       7.616    
        7.511       7.423       7.342       7.235       7.108       6.979       6.856       6.714       6.499       6.201    
        5.799       5.401       5.070       4.712       4.296       3.825       3.358       2.960       2.716       2.444    
        2.081       1.764       1.513       1.276       1.049      0.8242      0.6062      0.4186      0.2167       0.000    
  32    10.00       9.958       9.923       9.877       9.824       9.757       9.652       9.480       9.307       9.115    
        8.882       8.701       8.564       8.406       8.252       8.141       8.044       7.927       7.804       7.669    
        7.552       7.458       7.352       7.216       7.102       7.015       6.881       6.680       6.386       6.017    
        5.615       5.265       4.955       4.630       4.229       3.811       3.446       3.109       2.829       2.517    
        2.182       1.869       1.605       1.334       1.086      0.8960      0.6682      0.4106      0.1833       0.000    
  33    10.00       9.964       9.937       9.897       9.842       9.770       9.631       9.460       9.320       9.144    
        8.928       8.752       8.583       8.397       8.258       8.169       8.082       7.960       7.827       7.691    
        7.565       7.452       7.311       7.187       7.106       7.018       6.804       6.519       6.229       5.909    
        5.534       5.243       4.932       4.549       4.184       3.818       3.524       3.259       2.939       2.596    
        2.307       2.012       1.722       1.442       1.182      0.9697      0.7146      0.4124      0.1792       0.000    
  34    10.00       9.970       9.949       9.915       9.842       9.734       9.604       9.485       9.339       9.163    
        8.973       8.774       8.576       8.390       8.281       8.208       8.110       7.983       7.823       7.682    
        7.553       7.403       7.261       7.158       7.071       6.921       6.670       6.418       6.142       5.783    
        5.463       5.241       4.933       4.570       4.218       3.887       3.611       3.347       3.020       2.711    
        2.454       2.171       1.854       1.575       1.311       1.068      0.7640      0.4638      0.2432       0.000    
  35    10.00       9.975       9.949       9.899       9.808       9.701       9.607       9.504       9.382       9.187    
        8.972       8.764       8.560       8.412       8.319       8.238       8.122       7.979       7.810       7.642    
        7.462       7.314       7.175       7.082       6.987       6.840       6.592       6.311       6.000       5.642    
        5.413       5.175       4.876       4.614       4.324       3.981       3.681       3.462       3.155       2.828    
        2.580       2.290       1.973       1.698       1.424       1.158      0.8756      0.5803      0.2871       0.000    
  36    10.00       9.969       9.926       9.871       9.785       9.686       9.607       9.515       9.381       9.187    
        8.946       8.721       8.578       8.469       8.372       8.259       8.116       7.959       7.759       7.499    
        7.309       7.195       7.086       7.007       6.918       6.739       6.467       6.172       5.805       5.503    
        5.319       5.131       4.881       4.633       4.393       4.089       3.792       3.561       3.288       2.932    
        2.660       2.337       2.021       1.811       1.545       1.249      0.9658      0.6572      0.3215       0.000    
  37    10.00       9.951       9.905       9.849       9.765       9.678       9.587       9.497       9.372       9.141    
        8.888       8.718       8.636       8.526       8.397       8.276       8.081       7.875       7.594       7.321    
        7.221       7.125       7.019       6.930       6.822       6.604       6.341       5.956       5.635       5.451    
        5.300       5.106       4.863       4.671       4.428       4.141       3.910       3.689       3.382       2.991    
        2.635       2.332       2.112       1.895       1.628       1.347       1.064      0.7248      0.3980       0.000    
  38    10.00       9.944       9.883       9.825       9.750       9.666       9.568       9.471       9.323       9.105    
        8.916       8.783       8.675       8.568       8.417       8.200       7.967       7.712       7.396       7.232    
        7.152       7.021       6.901       6.832       6.700       6.474       6.097       5.750       5.593       5.458    
        5.301       5.099       4.883       4.693       4.457       4.198       4.009       3.784       3.393       2.963    
        2.654       2.401       2.183       1.959       1.723       1.437       1.155      0.8382      0.4142       0.000    
  39    10.00       9.927       9.867       9.814       9.742       9.644       9.539       9.437       9.298       9.119    
        8.969       8.865       8.739       8.581       8.335       8.050       7.788       7.484       7.270       7.173    
        7.035       6.881       6.793       6.724       6.595       6.294       5.933       5.740       5.601       5.463    
        5.286       5.098       4.891       4.703       4.525       4.313       4.065       3.793       3.408       3.007    
        2.682       2.421       2.249       2.061       1.795       1.513       1.226      0.8725      0.4088       0.000    
  40    10.00       9.918       9.861       9.806       9.730       9.629       9.526       9.425       9.300       9.150    
        9.025       8.929       8.758       8.492       8.175       7.890       7.612       7.358       7.210       7.074    
        6.910       6.782       6.713       6.620       6.451       6.184       5.952       5.765       5.613       5.470    
        5.298       5.097       4.904       4.748       4.593       4.379       4.093       3.808       3.417       2.988    
        2.683       2.476       2.287       2.127       1.847       1.538       1.276      0.8750      0.4073       0.000    
  41    10.00       9.925       9.858       9.791       9.709       9.629       9.543       9.448       9.324       9.185    
        9.064       8.939       8.704       8.379       8.055       7.790       7.520       7.282       7.132       6.980    
        6.816       6.707       6.625       6.516       6.345       6.153       6.001       5.822       5.633       5.466    
        5.302       5.123       4.939       4.804       4.639       4.426       4.140       3.747       3.299       2.968    
        2.747       2.547       2.352       2.128       1.837       1.541       1.317      0.9322      0.4227       0.000    
  42    10.00       9.924       9.848       9.789       9.728       9.654       9.561       9.452       9.345       9.237    
        9.073       8.850       8.575       8.265       7.964       7.724       7.458       7.229       7.065       6.893    
        6.741       6.643       6.551       6.454       6.305       6.176       6.049       5.846       5.634       5.485    
        5.353       5.157       4.961       4.830       4.678       4.451       4.099       3.636       3.226       2.980    
        2.814       2.635       2.386       2.088       1.809       1.578       1.345      0.9833      0.4851       0.000    
  43    10.00       9.917       9.853       9.802       9.753       9.681       9.589       9.484       9.363       9.187    
        8.969       8.738       8.481       8.159       7.890       7.668       7.429       7.196       6.989       6.827    
        6.692       6.594       6.519       6.440       6.316       6.185       6.056       5.845       5.662       5.553    
        5.392       5.182       4.994       4.859       4.681       4.387       3.981       3.543       3.244       3.056    
        2.878       2.673       2.367       2.062       1.815       1.592       1.391      0.9972      0.4557       0.000    
  44    10.00       9.917       9.860       9.814       9.756       9.701       9.624       9.481       9.296       9.090    
        8.906       8.673       8.363       8.094       7.881       7.624       7.363       7.113       6.907       6.767    
        6.669       6.587       6.513       6.432       6.326       6.192       6.018       5.845       5.722       5.593    
        5.449       5.266       5.050       4.845       4.628       4.299       3.874       3.513       3.282       3.100    
        2.921       2.677       2.382       2.118       1.854       1.614       1.369      0.9003      0.4140       0.000    
  45    10.00       9.926       9.873       9.813       9.756       9.707       9.579       9.408       9.219       9.042    
        8.891       8.577       8.256       8.060       7.829       7.543       7.258       7.027       6.862       6.752    
        6.679       6.602       6.521       6.426       6.309       6.177       6.031       5.899       5.791       5.657    
        5.490       5.301       5.078       4.820       4.560       4.207       3.808       3.524       3.348       3.161    
        2.922       2.643       2.390       2.149       1.915       1.676       1.278      0.8000      0.4026       0.000    
  46    10.00       9.940       9.883       9.813       9.747       9.651       9.510       9.380       9.222       9.032    
        8.779       8.480       8.223       7.975       7.727       7.450       7.186       7.016       6.881       6.776    
        6.702       6.627       6.524       6.406       6.293       6.183       6.068       5.947       5.839       5.720    
        5.570       5.370       5.118       4.811       4.441       4.074       3.779       3.578       3.395       3.200    
        2.917       2.620       2.368       2.177       1.954       1.643       1.190      0.7641      0.3767       0.000    
  47    10.00       9.951       9.897       9.827       9.713       9.586       9.466       9.364       9.218       8.967    
        8.664       8.390       8.166       7.959       7.696       7.395       7.162       7.001       6.892       6.805    
        6.724       6.636       6.527       6.404       6.295       6.208       6.114       5.995       5.870       5.754    
        5.622       5.455       5.120       4.690       4.329       4.066       3.819       3.646       3.484       3.213    
        2.869       2.555       2.327       2.195       1.948       1.567       1.125      0.7370      0.3724       0.000    
  48    10.00       9.956       9.900       9.795       9.678       9.569       9.448       9.344       9.196       8.913    
        8.582       8.353       8.169       7.915       7.609       7.338       7.163       7.001       6.893       6.824    
        6.742       6.636       6.519       6.406       6.316       6.248       6.164       6.032       5.887       5.762    
        5.625       5.423       5.074       4.717       4.396       4.105       3.885       3.708       3.501       3.157    
        2.787       2.545       2.363       2.130       1.806       1.468       1.089      0.7423      0.3930       0.000    
  49    10.00       9.953       9.869       9.767       9.679       9.562       9.444       9.334       9.148       8.848    
        8.552       8.333       8.103       7.846       7.616       7.363       7.119       6.968       6.902       6.838    
        6.760       6.639       6.503       6.405       6.337       6.286       6.189       6.037       5.885       5.771    
        5.622       5.357       5.050       4.797       4.528       4.207       3.922       3.703       3.459       3.091    
        2.793       2.581       2.330       1.994       1.707       1.402       1.071      0.7545      0.3842       0.000    
  50    10.00       9.941       9.848       9.755       9.684       9.574       9.444       9.304       9.103       8.866    
        8.566       8.273       8.034       7.829       7.644       7.361       7.082       6.969       6.911       6.848    
        6.773       6.636       6.491       6.402       6.348       6.302       6.193       6.030       5.884       5.769    
        5.606       5.327       5.091       4.874       4.582       4.263       3.974       3.684       3.333       3.007    
        2.850       2.626       2.260       1.923       1.682       1.392       1.104      0.7369      0.3027       0.000    

 HEAD WILL BE SAVED ON UNIT   51 AT END OF TIME STEP  10, STRESS PERIOD    2

 DRAWDOWN WILL BE SAVED ON UNIT   52 AT END OF TIME STEP  10, STRESS PERIOD    2
1
  VOLUMETRIC BUDGET FOR ENTIRE MODEL AT END OF TIME STEP 10 IN STRESS PERIOD   2
  ------------------------------------------------------------------------------

     CUMULATIVE VOLUMES      L**3       RATES FOR THIS TIME STEP      L**3/T
     ------------------                 ------------------------

           IN:                                      IN:
           ---                                      ---
             STORAGE =        4999.8169               STORAGE =         499.9114
       CONSTANT HEAD =        5939.0078         CONSTANT HEAD =         539.9803
               WELLS =           0.0000                 WELLS =           0.0000

            TOTAL IN =       10938.8242              TOTAL IN =        1039.8916

          OUT:                                     OUT:
          ----                                     ----
             STORAGE =       9.2724E-03               STORAGE =       6.3521E-05
       CONSTANT HEAD =        5938.8149         CONSTANT HEAD =         539.8922
               WELLS =        5000.0000                 WELLS =         500.0000

           TOTAL OUT =       10938.8242             TOTAL OUT =        1039.8923

            IN - OUT =           0.0000              IN - OUT =      -7.3242E-04

 PERCENT DISCREPANCY =           0.00     PERCENT DISCREPANCY =           0.00






          TIME SUMMARY AT END OF TIME STEP  10 IN STRESS PERIOD    2
                    SECONDS     MINUTES      HOURS       DAYS        YEARS
                    -----------------------------------------------------------
   TIME STEP LENGTH  86400.      1440.0      24.000      1.0000     2.73785E-03
 STRESS PERIOD TIME 8.64000E+05  14400.      240.00      10.000     2.73785E-02
         TOTAL TIME 9.50400E+05  15840.      264.00      11.000     3.01164E-02
1
 
 SOLVING FOR HEAD 

 OUTPUT CONTROL FOR STRESS PERIOD    2   TIME STEP  11
    SAVE HEAD FOR ALL LAYERS
    SAVE DRAWDOWN FOR ALL LAYERS
    SAVE BUDGET
    PRINT HEAD FOR ALL LAYERS
    PRINT BUDGET
 UBDSV1 SAVING "         STORAGE" ON UNIT  53 AT TIME STEP 11, STRESS PERIOD   2
 UBDSV2 SAVING "   CONSTANT HEAD" ON UNIT  53 AT TIME STEP 11, STRESS PERIOD   2
 UBDSV1 SAVING "FLOW RIGHT FACE " ON UNIT  53 AT TIME STEP 11, STRESS PERIOD   2
 UBDSV1 SAVING "FLOW FRONT FACE " ON UNIT  53 AT TIME STEP 11, STRESS PERIOD   2
1
              HEAD IN LAYER   1 AT END OF TIME STEP  11 IN STRESS PERIOD    2
  ---------------------------------------------------------------------------

            1           2           3           4           5           6           7           8           9          10
           11          12          13          14          15          16          17          18          19          20
           21          22          23          24          25          26          27          28          29          30
           31          32          33          34          35          36          37          38          39          40
           41          42          43          44          45          46          47          48          49          50
 ........................................................................................................................
   1    10.00       9.960       9.905       9.850       9.804       9.748       9.694       9.637       9.560       9.498    
        9.461       9.424       9.383       9.341       9.275       9.203       9.124       9.062       9.033       9.002    
        8.963       8.928       8.893       8.847       8.783       8.671       8.536       8.404       8.253       8.102    
        7.888       7.549       7.151       6.732       6.263       5.831       5.465       5.124       4.659       4.155    
        3.725       3.300       2.713       2.157       1.767       1.377       1.050      0.8388      0.5562       0.000    
   2    10.00       9.959       9.910       9.855       9.807       9.755       9.694       9.620       9.546       9.498    
        9.465       9.432       9.400       9.349       9.273       9.198       9.126       9.065       9.034       8.999    
        8.959       8.933       8.904       8.855       8.782       8.676       8.540       8.403       8.260       8.110    
        7.878       7.529       7.111       6.638       6.165       5.748       5.421       5.087       4.616       4.143    
        3.709       3.197       2.667       2.226       1.839       1.475       1.101      0.7967      0.4253       0.000    
   3    10.00       9.956       9.908       9.858       9.809       9.750       9.675       9.604       9.557       9.513    
        9.475       9.446       9.414       9.366       9.290       9.197       9.121       9.071       9.033       8.997    
        8.963       8.936       8.907       8.847       8.769       8.662       8.534       8.430       8.280       8.100    
        7.803       7.399       6.957       6.500       6.063       5.673       5.380       5.037       4.529       4.069    
        3.707       3.239       2.749       2.325       1.922       1.554       1.112      0.6836      0.3006       0.000    
   4    10.00       9.959       9.911       9.856       9.796       9.728       9.656       9.604       9.564       9.522    
        9.489       9.464       9.430       9.378       9.308       9.207       9.122       9.076       9.035       9.001    
        8.964       8.930       8.895       8.832       8.753       8.650       8.526       8.411       8.294       8.070    
        7.688       7.199       6.729       6.380       6.051       5.670       5.292       4.859       4.431       4.093    
        3.769       3.352       2.860       2.440       2.017       1.571       1.061      0.6072      0.2828       0.000    
   5    10.00       9.956       9.906       9.843       9.781       9.718       9.655       9.610       9.569       9.533    
        9.504       9.478       9.438       9.377       9.297       9.205       9.133       9.082       9.040       8.995    
        8.952       8.918       8.874       8.808       8.735       8.619       8.495       8.396       8.279       7.998    
        7.504       6.973       6.586       6.320       6.018       5.630       5.200       4.773       4.466       4.177    
        3.882       3.450       2.935       2.567       2.135       1.551      0.9654      0.5604      0.2819       0.000    
   6    10.00       9.946       9.886       9.837       9.778       9.713       9.660       9.619       9.577       9.544    
        9.517       9.485       9.434       9.364       9.296       9.219       9.142       9.080       9.028       8.976    
        8.939       8.903       8.862       8.794       8.686       8.576       8.483       8.375       8.182       7.785    
        7.243       6.769       6.474       6.269       6.023       5.598       5.130       4.784       4.557       4.301    
        4.011       3.617       3.103       2.644       2.109       1.484      0.8655      0.4928      0.2753       0.000    
   7    10.00       9.930       9.874       9.827       9.770       9.723       9.673       9.631       9.595       9.560    
        9.525       9.480       9.418       9.350       9.289       9.226       9.142       9.060       9.004       8.962    
        8.925       8.887       8.845       8.757       8.647       8.556       8.456       8.290       7.976       7.479    
        6.967       6.597       6.410       6.246       5.937       5.522       5.209       4.900       4.648       4.466    
        4.169       3.760       3.207       2.612       1.953       1.236      0.7252      0.5003      0.2533       0.000    
   8    10.00       9.926       9.874       9.823       9.773       9.731       9.688       9.648       9.613       9.579    
        9.529       9.464       9.399       9.341       9.283       9.208       9.109       9.032       8.990       8.949    
        8.907       8.874       8.809       8.718       8.621       8.515       8.332       8.075       7.658       7.232    
        6.844       6.542       6.394       6.195       5.852       5.529       5.265       5.036       4.826       4.608    
        4.298       3.790       3.151       2.473       1.724       1.115      0.7674      0.4907      0.2260       0.000    
   9    10.00       9.930       9.871       9.821       9.785       9.750       9.708       9.669       9.629       9.591    
        9.529       9.450       9.383       9.324       9.256       9.173       9.085       9.016       8.972       8.930    
        8.892       8.841       8.755       8.672       8.577       8.436       8.178       7.797       7.390       7.083    
        6.772       6.538       6.371       6.108       5.790       5.534       5.343       5.159       4.977       4.737    
        4.349       3.818       3.138       2.380       1.690       1.154      0.7827      0.4866      0.2412       0.000    
  10    10.00       9.928       9.869       9.828       9.796       9.762       9.726       9.691       9.646       9.587    
        9.512       9.433       9.369       9.305       9.235       9.140       9.052       8.998       8.957       8.915    
        8.875       8.798       8.705       8.618       8.492       8.294       7.926       7.512       7.181       6.947    
        6.751       6.550       6.335       6.064       5.783       5.578       5.425       5.270       5.063       4.783    
        4.365       3.782       3.054       2.377       1.830       1.322      0.8379      0.5165      0.2721       0.000    
  11    10.00       9.919       9.874       9.839       9.807       9.778       9.745       9.700       9.637       9.572    
        9.497       9.421       9.360       9.277       9.183       9.101       9.037       8.986       8.946       8.900    
        8.833       8.737       8.613       8.488       8.285       7.998       7.672       7.379       7.099       6.916    
        6.749       6.498       6.248       6.044       5.846       5.682       5.524       5.321       5.075       4.747    
        4.354       3.836       3.097       2.477       1.991       1.502      0.9647      0.5113      0.2052       0.000    
  12    10.00       9.926       9.881       9.845       9.818       9.788       9.752       9.692       9.618       9.552    
        9.482       9.408       9.328       9.230       9.154       9.084       9.018       8.974       8.926       8.860    
        8.742       8.586       8.419       8.241       7.995       7.772       7.576       7.287       7.041       6.879    
        6.695       6.468       6.253       6.072       5.930       5.779       5.585       5.354       5.057       4.710    
        4.322       3.814       3.135       2.579       2.138       1.609       1.014      0.4831      0.1607       0.000    
  13    10.00       9.943       9.901       9.862       9.828       9.793       9.742       9.669       9.593       9.529    
        9.457       9.384       9.302       9.203       9.116       9.048       9.001       8.948       8.885       8.748    
        8.544       8.357       8.176       7.958       7.763       7.647       7.420       7.157       7.012       6.862    
        6.656       6.447       6.280       6.136       6.010       5.867       5.639       5.346       5.052       4.691    
        4.301       3.783       3.081       2.562       2.152       1.573      0.9440      0.4368      0.1262       0.000    
  14    10.00       9.958       9.921       9.880       9.839       9.786       9.714       9.637       9.571       9.498    
        9.428       9.361       9.267       9.160       9.084       9.028       8.959       8.887       8.752       8.521    
        8.305       8.135       7.901       7.717       7.617       7.488       7.260       7.094       6.961       6.814    
        6.626       6.469       6.351       6.214       6.075       5.919       5.661       5.335       5.017       4.648    
        4.229       3.605       2.944       2.524       2.023       1.468      0.9315      0.3992      0.1027       0.000    
  15    10.00       9.967       9.929       9.889       9.842       9.764       9.675       9.609       9.543       9.475    
        9.422       9.346       9.225       9.113       9.045       8.958       8.872       8.782       8.566       8.297    
        8.114       7.879       7.657       7.576       7.503       7.349       7.160       6.997       6.891       6.772    
        6.630       6.518       6.411       6.288       6.133       5.937       5.637       5.266       4.932       4.591    
        4.138       3.529       2.955       2.390       1.784       1.288      0.8013      0.3519      0.1056       0.000    
  16    10.00       9.976       9.939       9.892       9.820       9.724       9.649       9.595       9.536       9.467    
        9.397       9.294       9.160       9.054       8.962       8.864       8.804       8.637       8.328       8.077    
        7.886       7.647       7.550       7.490       7.377       7.189       7.032       6.939       6.872       6.772    
        6.653       6.553       6.464       6.331       6.140       5.898       5.539       5.201       4.934       4.565    
        4.049       3.392       2.735       2.109       1.595       1.105      0.6830      0.3342      0.1127       0.000    
  17    10.00       9.976       9.938       9.876       9.787       9.692       9.629       9.581       9.517       9.441    
        9.331       9.204       9.086       8.976       8.866       8.773       8.638       8.366       8.072       7.890    
        7.698       7.535       7.457       7.346       7.171       7.024       6.968       6.927       6.868       6.767    
        6.662       6.574       6.488       6.366       6.103       5.770       5.460       5.215       4.958       4.492    
        3.804       3.139       2.515       1.902       1.364      0.8941      0.5726      0.2990      0.1228       0.000    
  18    10.00       9.971       9.926       9.852       9.743       9.668       9.618       9.554       9.482       9.381    
        9.251       9.140       9.025       8.883       8.743       8.596       8.401       8.122       7.894       7.727    
        7.563       7.421       7.305       7.150       7.020       6.967       6.942       6.915       6.854       6.765    
        6.678       6.593       6.487       6.289       6.017       5.729       5.458       5.237       4.878       4.261    
        3.561       2.858       2.194       1.693       1.265      0.8383      0.4918      0.2473      0.1185       0.000    
  19    10.00       9.964       9.915       9.809       9.700       9.656       9.602       9.524       9.438       9.331    
        9.214       9.112       8.951       8.740       8.577       8.426       8.188       7.924       7.762       7.630    
        7.457       7.287       7.158       7.032       6.960       6.930       6.910       6.877       6.823       6.761    
        6.693       6.602       6.446       6.241       5.998       5.712       5.461       5.146       4.547       3.916    
        3.357       2.632       2.004       1.607       1.183      0.7562      0.4439      0.2517      0.1289       0.000    
  20    10.00       9.956       9.874       9.765       9.687       9.640       9.583       9.500       9.405       9.308    
        9.190       9.038       8.803       8.597       8.451       8.263       8.022       7.872       7.723       7.537    
        7.346       7.190       7.054       6.960       6.907       6.875       6.839       6.816       6.782       6.745    
        6.689       6.592       6.418       6.204       5.947       5.691       5.379       4.820       4.185       3.689    
        3.088       2.424       1.955       1.571       1.143      0.6707      0.3875      0.2620      0.1350       0.000    
  21    10.00       9.927       9.840       9.749       9.673       9.624       9.562       9.466       9.373       9.282    
        9.127       8.900       8.664       8.509       8.346       8.147       7.964       7.820       7.639       7.439    
        7.251       7.097       6.976       6.878       6.809       6.759       6.739       6.735       6.721       6.704    
        6.666       6.551       6.358       6.135       5.869       5.587       5.114       4.537       4.035       3.435    
        2.869       2.348       1.952       1.564      0.9621      0.5425      0.3921      0.2958      0.1418       0.000    
  22    10.00       9.908       9.804       9.724       9.664       9.605       9.520       9.432       9.350       9.227    
        9.031       8.777       8.591       8.452       8.269       8.062       7.883       7.726       7.556       7.364    
        7.176       7.013       6.855       6.709       6.623       6.602       6.615       6.625       6.644       6.642    
        6.601       6.466       6.290       6.051       5.770       5.488       5.000       4.436       3.784       3.208    
        2.799       2.383       1.907       1.259      0.7493      0.5404      0.4108      0.2734      0.1011       0.000    
  23    10.00       9.882       9.781       9.719       9.656       9.569       9.477       9.413       9.310       9.158    
        8.932       8.716       8.582       8.407       8.167       7.956       7.812       7.682       7.522       7.314    
        7.115       6.925       6.701       6.434       6.236       6.279       6.408       6.488       6.548       6.568    
        6.522       6.386       6.204       5.985       5.712       5.385       4.890       4.199       3.552       3.146    
        2.770       2.246       1.567       1.013      0.7368      0.5508      0.3939      0.2323      9.2446E-02   0.000    
  24    10.00       9.865       9.792       9.718       9.629       9.540       9.470       9.399       9.301       9.101    
        8.888       8.728       8.575       8.340       8.072       7.918       7.796       7.669       7.485       7.289    
        7.113       6.873       6.514       6.006       5.379       5.654       6.049       6.311       6.445       6.482    
        6.437       6.309       6.141       5.901       5.612       5.219       4.606       3.960       3.475       3.052    
        2.591       2.010       1.404      0.9817      0.7378      0.5364      0.3592      0.2516      0.1235       0.000    
  25    10.00       9.881       9.807       9.713       9.622       9.540       9.470       9.404       9.258       9.064    
        8.900       8.736       8.534       8.272       8.073       7.938       7.801       7.648       7.480       7.312    
        7.110       6.882       6.372       5.396       3.624       4.979       5.716       6.136       6.359       6.420    
        6.369       6.252       6.075       5.770       5.405       4.908       4.351       3.844       3.424       2.928    
        2.373       1.818       1.309      0.9725      0.7646      0.5573      0.3784      0.2635      0.1640       0.000    
  26    10.00       9.897       9.826       9.727       9.629       9.555       9.480       9.383       9.238       9.102    
        8.946       8.718       8.469       8.256       8.107       7.977       7.820       7.632       7.469       7.329    
        7.163       6.943       6.512       5.812       5.023       5.403       5.863       6.170       6.360       6.389    
        6.305       6.186       5.959       5.624       5.241       4.776       4.168       3.694       3.306       2.709    
        2.085       1.600       1.296       1.062      0.8245      0.6015      0.4124      0.2862      0.1672       0.000    
  27    10.00       9.918       9.831       9.743       9.658       9.569       9.486       9.387       9.267       9.139    
        8.938       8.679       8.459       8.282       8.158       8.008       7.802       7.608       7.483       7.370    
        7.244       7.047       6.732       6.337       5.947       5.957       6.141       6.324       6.414       6.361    
        6.258       6.130       5.884       5.533       5.099       4.492       3.939       3.557       2.980       2.361    
        1.880       1.570       1.341       1.136      0.9013      0.6565      0.4480      0.3150      0.1987       0.000    
  28    10.00       9.924       9.853       9.773       9.689       9.595       9.502       9.406       9.299       9.148    
        8.909       8.680       8.486       8.312       8.179       8.027       7.862       7.682       7.514       7.402    
        7.304       7.167       6.973       6.707       6.490       6.371       6.407       6.482       6.455       6.358    
        6.225       6.061       5.776       5.364       4.825       4.222       3.764       3.242       2.651       2.217    
        1.876       1.613       1.389       1.175      0.9470      0.7164      0.5082      0.3586      0.2049       0.000    
  29    10.00       9.930       9.860       9.797       9.715       9.630       9.538       9.438       9.319       9.114    
        8.890       8.692       8.503       8.355       8.200       8.040       7.890       7.749       7.596       7.456    
        7.352       7.250       7.128       6.980       6.781       6.677       6.636       6.591       6.505       6.335    
        6.156       5.902       5.601       5.097       4.490       3.992       3.548       3.016       2.548       2.233    
        1.957       1.669       1.415       1.210       1.004      0.7575      0.5369      0.3746      0.2077       0.000    
  30    10.00       9.939       9.881       9.826       9.752       9.667       9.584       9.468       9.306       9.116    
        8.886       8.668       8.512       8.360       8.210       8.067       7.947       7.822       7.675       7.526    
        7.406       7.321       7.222       7.124       7.004       6.869       6.779       6.661       6.503       6.293    
        6.016       5.652       5.294       4.814       4.364       3.911       3.443       2.952       2.602       2.317    
        1.990       1.701       1.481       1.247       1.002      0.7837      0.5722      0.3978      0.2235       0.000    
  31    10.00       9.952       9.903       9.850       9.795       9.726       9.629       9.482       9.294       9.093    
        8.868       8.672       8.528       8.377       8.236       8.101       7.985       7.885       7.734       7.588    
        7.480       7.391       7.308       7.202       7.081       6.955       6.833       6.695       6.485       6.193    
        5.795       5.399       5.069       4.711       4.296       3.825       3.358       2.960       2.716       2.444    
        2.081       1.764       1.513       1.276       1.049      0.8242      0.6062      0.4186      0.2167       0.000    
  32    10.00       9.958       9.923       9.877       9.824       9.757       9.652       9.480       9.306       9.114    
        8.880       8.697       8.559       8.398       8.242       8.129       8.030       7.910       7.785       7.646    
        7.527       7.431       7.327       7.195       7.083       6.997       6.864       6.667       6.378       6.013    
        5.613       5.264       4.955       4.630       4.229       3.811       3.446       3.109       2.829       2.517    
        2.182       1.869       1.605       1.334       1.086      0.8960      0.6682      0.4106      0.1833       0.000    
  33    10.00       9.964       9.937       9.897       9.842       9.770       9.631       9.460       9.320       9.143    
        8.926       8.749       8.579       8.390       8.250       8.160       8.071       7.946       7.811       7.673    
        7.545       7.432       7.292       7.171       7.091       7.004       6.793       6.512       6.225       5.907    
        5.533       5.242       4.931       4.549       4.183       3.818       3.524       3.259       2.939       2.596    
        2.307       2.012       1.722       1.442       1.182      0.9697      0.7146      0.4124      0.1792       0.000    
  34    10.00       9.970       9.949       9.915       9.842       9.734       9.604       9.485       9.338       9.162    
        8.971       8.771       8.572       8.385       8.274       8.201       8.101       7.973       7.810       7.669    
        7.538       7.388       7.248       7.146       7.059       6.912       6.664       6.414       6.140       5.782    
        5.463       5.241       4.933       4.570       4.218       3.887       3.611       3.347       3.020       2.711    
        2.454       2.171       1.854       1.575       1.311       1.068      0.7640      0.4638      0.2432       0.000    
  35    10.00       9.975       9.948       9.899       9.808       9.701       9.607       9.504       9.382       9.186    
        8.971       8.763       8.558       8.408       8.314       8.232       8.115       7.971       7.802       7.632    
        7.453       7.305       7.167       7.074       6.980       6.835       6.589       6.309       5.999       5.641    
        5.412       5.175       4.876       4.614       4.324       3.981       3.681       3.462       3.155       2.828    
        2.580       2.290       1.973       1.698       1.424       1.158      0.8756      0.5803      0.2871       0.000    
  36    10.00       9.969       9.926       9.871       9.785       9.686       9.607       9.515       9.381       9.186    
        8.945       8.719       8.576       8.466       8.368       8.255       8.111       7.953       7.754       7.493    
        7.304       7.190       7.081       7.002       6.914       6.736       6.465       6.171       5.804       5.503    
        5.319       5.131       4.881       4.633       4.393       4.089       3.792       3.561       3.288       2.932    
        2.660       2.337       2.021       1.811       1.545       1.249      0.9658      0.6572      0.3215       0.000    
  37    10.00       9.951       9.905       9.849       9.765       9.678       9.587       9.497       9.371       9.141    
        8.887       8.717       8.634       8.524       8.394       8.273       8.077       7.872       7.591       7.318    
        7.217       7.122       7.016       6.927       6.819       6.602       6.340       5.955       5.635       5.451    
        5.300       5.106       4.863       4.671       4.428       4.141       3.910       3.689       3.382       2.991    
        2.635       2.332       2.112       1.895       1.628       1.347       1.064      0.7248      0.3980       0.000    
  38    10.00       9.944       9.883       9.825       9.750       9.666       9.568       9.470       9.323       9.105    
        8.915       8.782       8.674       8.566       8.415       8.198       7.965       7.710       7.394       7.230    
        7.150       7.019       6.899       6.830       6.699       6.473       6.096       5.750       5.593       5.458    
        5.301       5.099       4.883       4.693       4.457       4.198       4.009       3.784       3.393       2.963    
        2.654       2.401       2.183       1.959       1.723       1.437       1.155      0.8382      0.4142       0.000    
  39    10.00       9.927       9.867       9.814       9.742       9.644       9.539       9.437       9.298       9.119    
        8.969       8.865       8.738       8.579       8.334       8.050       7.787       7.483       7.269       7.172    
        7.033       6.880       6.792       6.723       6.595       6.294       5.933       5.740       5.601       5.463    
        5.286       5.098       4.891       4.703       4.525       4.313       4.065       3.793       3.408       3.007    
        2.682       2.421       2.249       2.061       1.795       1.513       1.226      0.8725      0.4088       0.000    
  40    10.00       9.918       9.861       9.806       9.730       9.629       9.526       9.425       9.300       9.150    
        9.024       8.929       8.757       8.491       8.175       7.890       7.612       7.358       7.209       7.073    
        6.909       6.781       6.713       6.619       6.451       6.184       5.952       5.765       5.613       5.470    
        5.298       5.097       4.904       4.748       4.593       4.379       4.093       3.808       3.417       2.988    
        2.683       2.476       2.287       2.127       1.847       1.538       1.276      0.8750      0.4073       0.000    
  41    10.00       9.925       9.858       9.791       9.709       9.629       9.542       9.447       9.323       9.185    
        9.063       8.939       8.704       8.379       8.055       7.790       7.520       7.281       7.132       6.979    
        6.815       6.706       6.625       6.515       6.345       6.153       6.001       5.822       5.633       5.466    
        5.302       5.123       4.939       4.804       4.639       4.426       4.140       3.747       3.299       2.968    
        2.747       2.547       2.352       2.128       1.837       1.541       1.317      0.9322      0.4227       0.000    
  42    10.00       9.924       9.848       9.789       9.728       9.654       9.561       9.452       9.345       9.237    
        9.073       8.850       8.575       8.265       7.963       7.723       7.458       7.229       7.065       6.893    
        6.741       6.643       6.551       6.453       6.305       6.176       6.049       5.846       5.634       5.485    
        5.353       5.157       4.961       4.830       4.678       4.451       4.099       3.636       3.226       2.980    
        2.814       2.635       2.386       2.088       1.809       1.578       1.345      0.9833      0.4851       0.000    
  43    10.00       9.917       9.853       9.802       9.753       9.681       9.589       9.484       9.363       9.187    
        8.969       8.738       8.481       8.159       7.890       7.668       7.429       7.196       6.989       6.827    
        6.692       6.594       6.519       6.440       6.316       6.185       6.056       5.845       5.662       5.553    
        5.392       5.182       4.994       4.859       4.681       4.387       3.981       3.543       3.244       3.056    
        2.878       2.673       2.367       2.062       1.815       1.592       1.391      0.9972      0.4557       0.000    
  44    10.00       9.917       9.860       9.814       9.756       9.701       9.624       9.481       9.296       9.090    
        8.906       8.673       8.363       8.094       7.881       7.624       7.362       7.113       6.907       6.767    
        6.669       6.587       6.513       6.432       6.326       6.192       6.018       5.845       5.722       5.593    
        5.449       5.266       5.050       4.845       4.628       4.299       3.874       3.513       3.282       3.100    
        2.921       2.677       2.382       2.118       1.854       1.614       1.369      0.9003      0.4140       0.000    
  45    10.00       9.926       9.873       9.813       9.756       9.707       9.579       9.408       9.219       9.042    
        8.891       8.577       8.256       8.060       7.828       7.543       7.257       7.027       6.862       6.752    
        6.678       6.602       6.521       6.426       6.309       6.177       6.031       5.899       5.791       5.657    
        5.490       5.301       5.078       4.819       4.560       4.207       3.808       3.524       3.348       3.161    
        2.922       2.643       2.390       2.149       1.915       1.676       1.278      0.8000      0.4026       0.000    
  46    10.00       9.940       9.883       9.813       9.747       9.651       9.510       9.380       9.222       9.032    
        8.779       8.480       8.223       7.975       7.727       7.450       7.186       7.016       6.881       6.776    
        6.702       6.627       6.524       6.406       6.293       6.183       6.068       5.947       5.839       5.720    
        5.570       5.370       5.118       4.811       4.441       4.074       3.779       3.578       3.395       3.200    
        2.917       2.620       2.368       2.177       1.954       1.643       1.190      0.7641      0.3767       0.000    
  47    10.00       9.951       9.897       9.827       9.713       9.586       9.466       9.364       9.218       8.967    
        8.664       8.390       8.166       7.959       7.696       7.395       7.162       7.001       6.892       6.805    
        6.724       6.636       6.527       6.404       6.295       6.208       6.114       5.995       5.870       5.754    
        5.622       5.455       5.120       4.690       4.329       4.066       3.819       3.646       3.484       3.213    
        2.869       2.555       2.327       2.195       1.948       1.567       1.125      0.7370      0.3724       0.000    
  48    10.00       9.956       9.900       9.795       9.678       9.569       9.448       9.344       9.196       8.913    
        8.582       8.353       8.169       7.915       7.609       7.338       7.163       7.001       6.893       6.824    
        6.742       6.636       6.519       6.406       6.316       6.248       6.164       6.032       5.887       5.762    
        5.625       5.423       5.074       4.717       4.396       4.105       3.885       3.708       3.501       3.157    
        2.787       2.545       2.363       2.130       1.806       1.468       1.089      0.7423      0.3930       0.000    
  49    10.00       9.953       9.869       9.767       9.679       9.562       9.444       9.334       9.148       8.848    
        8.552       8.333       8.103       7.846       7.616       7.363       7.119       6.968       6.902       6.838    
        6.760       6.638       6.503       6.405       6.337       6.286       6.189       6.037       5.885       5.771    
        5.622       5.357       5.050       4.797       4.528       4.207       3.922       3.703       3.459       3.091    
        2.793       2.581       2.330       1.994       1.707       1.402       1.071      0.7545      0.3842       0.000    
  50    10.00       9.941       9.848       9.755       9.684       9.574       9.444       9.304       9.103       8.866    
        8.566       8.273       8.034       7.829       7.644       7.361       7.082       6.969       6.911       6.848    
        6.773       6.636       6.491       6.402       6.348       6.302       6.193       6.030       5.884       5.769    
        5.606       5.327       5.091       4.874       4.582       4.263       3.974       3.684       3.333       3.007    
        2.850       2.626       2.260       1.923       1.682       1.392       1.104      0.7369      0.3027       0.000    

 HEAD WILL BE SAVED ON UNIT   51 AT END OF TIME STEP  11, STRESS PERIOD    2

 DRAWDOWN WILL BE SAVED ON UNIT   52 AT END OF TIME STEP  11, STRESS PERIOD    2
1
  VOLUMETRIC BUDGET FOR ENTIRE MODEL AT END OF TIME STEP 11 IN STRESS PERIOD   2
  ------------------------------------------------------------------------------

     CUMULATIVE VOLUMES      L**3       RATES FOR THIS TIME STEP      L**3/T
     ------------------                 ------------------------

           IN:                                      IN:
           ---                                      ---
             STORAGE =        5499.6743               STORAGE =         499.8573
       CONSTANT HEAD =        6479.0425         CONSTANT HEAD =         540.0348
               WELLS =           0.0000                 WELLS =           0.0000

            TOTAL IN =       11978.7168              TOTAL IN =        1039.8921

          OUT:                                     OUT:
          ----                                     ----
             STORAGE =       9.3172E-03               STORAGE =       4.4795E-05
       CONSTANT HEAD =        6478.7070         CONSTANT HEAD =         539.8921
               WELLS =        5500.0000                 WELLS =         500.0000

           TOTAL OUT =       11978.7168             TOTAL OUT =        1039.8921

            IN - OUT =           0.0000              IN - OUT =           0.0000

 PERCENT DISCREPANCY =           0.00     PERCENT DISCREPANCY =           0.00






          TIME SUMMARY AT END OF TIME STEP  11 IN STRESS PERIOD    2
                    SECONDS     MINUTES      HOURS       DAYS        YEARS
                    -----------------------------------------------------------
   TIME STEP LENGTH  86400.      1440.0      24.000      1.0000     2.73785E-03
 STRESS PERIOD TIME 9.50400E+05  15840.      264.00      11.000     3.01164E-02
         TOTAL TIME 1.03680E+06  17280.      288.00      12.000     3.28542E-02
1
 
 SOLVING FOR HEAD 

 OUTPUT CONTROL FOR STRESS PERIOD    2   TIME STEP  12
    SAVE HEAD FOR ALL LAYERS
    SAVE DRAWDOWN FOR ALL LAYERS
    SAVE BUDGET
    PRINT HEAD FOR ALL LAYERS
    PRINT BUDGET
 UBDSV1 SAVING "         STORAGE" ON UNIT  53 AT TIME STEP 12, STRESS PERIOD   2
 UBDSV2 SAVING "   CONSTANT HEAD" ON UNIT  53 AT TIME STEP 12, STRESS PERIOD   2
 UBDSV1 SAVING "FLOW RIGHT FACE " ON UNIT  53 AT TIME STEP 12, STRESS PERIOD   2
 UBDSV1 SAVING "FLOW FRONT FACE " ON UNIT  53 AT TIME STEP 12, STRESS PERIOD   2
1
              HEAD IN LAYER   1 AT END OF TIME STEP  12 IN STRESS PERIOD    2
  ---------------------------------------------------------------------------

            1           2           3           4           5           6           7           8           9          10
           11          12          13          14          15          16          17          18          19          20
           21          22          23          24          25          26          27          28          29          30
           31          32          33          34          35          36          37          38          39          40
           41          42          43          44          45          46          47          48          49          50
 ........................................................................................................................
   1    10.00       9.960       9.905       9.850       9.804       9.748       9.694       9.637       9.560       9.498    
        9.461       9.424       9.382       9.341       9.275       9.202       9.123       9.061       9.033       9.002    
        8.962       8.928       8.892       8.846       8.783       8.671       8.536       8.404       8.253       8.102    
        7.888       7.549       7.151       6.732       6.263       5.831       5.465       5.124       4.659       4.155    
        3.725       3.300       2.713       2.157       1.767       1.377       1.050      0.8388      0.5562       0.000    
   2    10.00       9.959       9.910       9.855       9.807       9.755       9.694       9.619       9.546       9.498    
        9.465       9.432       9.400       9.349       9.273       9.198       9.125       9.065       9.034       8.998    
        8.958       8.932       8.904       8.855       8.782       8.676       8.540       8.403       8.260       8.110    
        7.878       7.529       7.111       6.638       6.165       5.748       5.421       5.087       4.616       4.143    
        3.709       3.197       2.667       2.226       1.839       1.475       1.101      0.7967      0.4253       0.000    
   3    10.00       9.955       9.908       9.858       9.809       9.750       9.675       9.604       9.557       9.513    
        9.475       9.445       9.414       9.366       9.290       9.197       9.121       9.070       9.032       8.997    
        8.963       8.935       8.907       8.847       8.769       8.662       8.533       8.430       8.280       8.100    
        7.803       7.399       6.957       6.500       6.063       5.673       5.380       5.037       4.529       4.069    
        3.707       3.239       2.749       2.325       1.922       1.554       1.112      0.6836      0.3006       0.000    
   4    10.00       9.959       9.911       9.856       9.796       9.728       9.656       9.603       9.563       9.522    
        9.489       9.464       9.430       9.377       9.308       9.207       9.122       9.075       9.034       9.000    
        8.963       8.930       8.895       8.832       8.753       8.650       8.526       8.410       8.294       8.070    
        7.688       7.198       6.729       6.380       6.051       5.670       5.292       4.859       4.431       4.093    
        3.769       3.352       2.860       2.440       2.017       1.571       1.061      0.6072      0.2828       0.000    
   5    10.00       9.956       9.906       9.843       9.781       9.717       9.655       9.610       9.569       9.533    
        9.504       9.478       9.438       9.377       9.297       9.205       9.132       9.081       9.040       8.994    
        8.952       8.918       8.873       8.808       8.734       8.618       8.495       8.396       8.278       7.998    
        7.504       6.973       6.586       6.319       6.018       5.630       5.200       4.773       4.466       4.177    
        3.882       3.450       2.935       2.567       2.135       1.551      0.9653      0.5604      0.2819       0.000    
   6    10.00       9.946       9.886       9.837       9.778       9.713       9.660       9.619       9.577       9.544    
        9.517       9.485       9.434       9.364       9.295       9.219       9.141       9.080       9.027       8.976    
        8.938       8.903       8.862       8.793       8.686       8.575       8.482       8.375       8.182       7.784    
        7.243       6.769       6.473       6.269       6.023       5.598       5.130       4.784       4.556       4.301    
        4.011       3.617       3.103       2.644       2.109       1.483      0.8655      0.4928      0.2753       0.000    
   7    10.00       9.930       9.874       9.827       9.770       9.723       9.673       9.631       9.595       9.560    
        9.525       9.479       9.418       9.350       9.289       9.226       9.141       9.059       9.004       8.961    
        8.924       8.887       8.844       8.756       8.646       8.555       8.455       8.290       7.975       7.479    
        6.966       6.596       6.409       6.246       5.936       5.522       5.208       4.900       4.647       4.466    
        4.169       3.760       3.207       2.612       1.953       1.236      0.7252      0.5003      0.2533       0.000    
   8    10.00       9.926       9.874       9.823       9.773       9.731       9.688       9.648       9.613       9.579    
        9.529       9.464       9.399       9.341       9.283       9.207       9.108       9.031       8.989       8.948    
        8.906       8.873       8.808       8.717       8.620       8.514       8.331       8.074       7.657       7.231    
        6.842       6.541       6.393       6.194       5.851       5.528       5.265       5.035       4.826       4.608    
        4.297       3.790       3.151       2.473       1.724       1.115      0.7674      0.4907      0.2260       0.000    
   9    10.00       9.930       9.871       9.821       9.785       9.750       9.708       9.669       9.629       9.591    
        9.528       9.450       9.383       9.324       9.256       9.172       9.084       9.016       8.971       8.930    
        8.891       8.840       8.753       8.671       8.575       8.434       8.176       7.795       7.388       7.080    
        6.769       6.536       6.369       6.107       5.788       5.533       5.342       5.158       4.976       4.737    
        4.349       3.818       3.138       2.380       1.690       1.154      0.7827      0.4866      0.2412       0.000    
  10    10.00       9.928       9.869       9.828       9.796       9.762       9.726       9.691       9.646       9.587    
        9.512       9.433       9.369       9.305       9.235       9.140       9.051       8.997       8.956       8.914    
        8.874       8.796       8.703       8.615       8.490       8.291       7.923       7.508       7.177       6.943    
        6.748       6.547       6.332       6.061       5.780       5.577       5.423       5.269       5.062       4.783    
        4.365       3.782       3.054       2.377       1.830       1.322      0.8379      0.5165      0.2721       0.000    
  11    10.00       9.919       9.874       9.839       9.807       9.778       9.745       9.700       9.637       9.571    
        9.497       9.420       9.359       9.277       9.183       9.100       9.036       8.984       8.945       8.898    
        8.832       8.735       8.610       8.485       8.280       7.993       7.666       7.373       7.093       6.910    
        6.744       6.494       6.244       6.041       5.843       5.680       5.522       5.320       5.074       4.746    
        4.354       3.836       3.097       2.477       1.991       1.502      0.9647      0.5113      0.2052       0.000    
  12    10.00       9.926       9.881       9.845       9.818       9.788       9.752       9.692       9.618       9.552    
        9.482       9.408       9.327       9.230       9.153       9.083       9.017       8.972       8.925       8.858    
        8.740       8.582       8.413       8.234       7.986       7.762       7.567       7.278       7.033       6.872    
        6.689       6.462       6.248       6.068       5.926       5.776       5.583       5.352       5.056       4.710    
        4.321       3.814       3.135       2.579       2.138       1.609       1.014      0.4831      0.1607       0.000    
  13    10.00       9.943       9.901       9.862       9.828       9.793       9.742       9.669       9.593       9.528    
        9.456       9.383       9.301       9.202       9.115       9.046       9.000       8.946       8.883       8.744    
        8.538       8.349       8.166       7.946       7.749       7.634       7.407       7.144       7.000       6.852    
        6.647       6.438       6.273       6.130       6.005       5.864       5.637       5.345       5.051       4.690    
        4.301       3.783       3.081       2.562       2.152       1.573      0.9440      0.4368      0.1262       0.000    
  14    10.00       9.958       9.921       9.880       9.839       9.786       9.713       9.637       9.570       9.498    
        9.428       9.361       9.266       9.159       9.082       9.026       8.957       8.884       8.748       8.513    
        8.295       8.123       7.885       7.699       7.599       7.470       7.242       7.076       6.944       6.800    
        6.613       6.458       6.342       6.206       6.069       5.915       5.658       5.333       5.016       4.648    
        4.229       3.605       2.944       2.524       2.023       1.468      0.9315      0.3992      0.1027       0.000    
  15    10.00       9.967       9.929       9.889       9.842       9.764       9.675       9.609       9.543       9.474    
        9.421       9.346       9.224       9.111       9.043       8.955       8.868       8.778       8.558       8.285    
        8.100       7.860       7.635       7.553       7.481       7.327       7.137       6.975       6.870       6.753    
        6.615       6.505       6.400       6.279       6.126       5.932       5.634       5.265       4.931       4.591    
        4.138       3.529       2.955       2.390       1.784       1.288      0.8013      0.3519      0.1056       0.000    
  16    10.00       9.976       9.939       9.892       9.820       9.724       9.649       9.595       9.536       9.466    
        9.397       9.293       9.158       9.052       8.959       8.860       8.799       8.630       8.315       8.060    
        7.866       7.623       7.525       7.465       7.351       7.162       7.005       6.912       6.848       6.752    
        6.635       6.538       6.451       6.321       6.132       5.893       5.536       5.200       4.934       4.564    
        4.048       3.392       2.735       2.109       1.595       1.105      0.6830      0.3342      0.1127       0.000    
  17    10.00       9.976       9.938       9.876       9.787       9.692       9.629       9.581       9.517       9.441    
        9.330       9.202       9.084       8.972       8.861       8.767       8.630       8.353       8.053       7.867    
        7.671       7.507       7.428       7.316       7.140       6.992       6.937       6.898       6.842       6.744    
        6.642       6.557       6.473       6.354       6.095       5.766       5.457       5.214       4.957       4.492    
        3.804       3.139       2.515       1.902       1.364      0.8941      0.5726      0.2990      0.1228       0.000    
  18    10.00       9.971       9.926       9.852       9.743       9.667       9.618       9.553       9.482       9.380    
        9.250       9.138       9.022       8.878       8.736       8.586       8.388       8.101       7.869       7.699    
        7.532       7.388       7.271       7.115       6.985       6.932       6.908       6.882       6.824       6.739    
        6.656       6.574       6.472       6.278       6.010       5.725       5.455       5.235       4.877       4.261    
        3.561       2.858       2.194       1.693       1.265      0.8383      0.4918      0.2473      0.1185       0.000    
  19    10.00       9.964       9.915       9.809       9.700       9.656       9.602       9.524       9.437       9.330    
        9.213       9.110       8.947       8.733       8.566       8.412       8.169       7.898       7.732       7.598    
        7.423       7.250       7.120       6.993       6.922       6.893       6.874       6.842       6.790       6.732    
        6.668       6.581       6.431       6.230       5.991       5.708       5.458       5.144       4.546       3.916    
        3.357       2.632       2.004       1.607       1.183      0.7562      0.4439      0.2517      0.1289       0.000    
  20    10.00       9.956       9.874       9.765       9.687       9.640       9.582       9.499       9.404       9.307    
        9.188       9.035       8.797       8.587       8.439       8.246       7.999       7.845       7.692       7.503    
        7.308       7.151       7.014       6.919       6.867       6.836       6.800       6.778       6.747       6.712    
        6.661       6.570       6.402       6.193       5.941       5.687       5.377       4.819       4.185       3.689    
        3.088       2.424       1.955       1.571       1.143      0.6707      0.3875      0.2620      0.1350       0.000    
  21    10.00       9.927       9.840       9.749       9.673       9.624       9.562       9.466       9.372       9.282    
        9.125       8.896       8.657       8.498       8.331       8.126       7.938       7.791       7.605       7.402    
        7.211       7.056       6.934       6.835       6.767       6.716       6.697       6.695       6.683       6.668    
        6.635       6.527       6.342       6.125       5.864       5.583       5.112       4.536       4.035       3.435    
        2.869       2.348       1.952       1.564      0.9621      0.5425      0.3921      0.2958      0.1418       0.000    
  22    10.00       9.908       9.804       9.724       9.664       9.605       9.519       9.432       9.349       9.226    
        9.028       8.772       8.582       8.439       8.251       8.039       7.855       7.694       7.520       7.325    
        7.134       6.969       6.811       6.664       6.578       6.557       6.571       6.582       6.602       6.603    
        6.568       6.442       6.274       6.041       5.764       5.484       4.998       4.435       3.784       3.208    
        2.799       2.383       1.907       1.259      0.7493      0.5404      0.4108      0.2734      0.1011       0.000    
  23    10.00       9.882       9.781       9.718       9.656       9.569       9.477       9.412       9.310       9.157    
        8.929       8.710       8.573       8.394       8.147       7.930       7.782       7.649       7.485       7.274    
        7.072       6.880       6.654       6.385       6.187       6.230       6.359       6.441       6.503       6.527    
        6.488       6.362       6.187       5.974       5.706       5.382       4.889       4.199       3.552       3.146    
        2.770       2.246       1.567       1.013      0.7368      0.5508      0.3939      0.2323      9.2446E-02   0.000    
  24    10.00       9.865       9.792       9.718       9.629       9.540       9.470       9.398       9.300       9.098    
        8.884       8.721       8.565       8.325       8.050       7.892       7.766       7.636       7.448       7.249    
        7.070       6.827       6.465       5.955       5.325       5.600       5.995       6.260       6.398       6.440    
        6.403       6.284       6.124       5.891       5.606       5.216       4.605       3.960       3.474       3.052    
        2.591       2.010       1.404      0.9817      0.7378      0.5364      0.3592      0.2516      0.1235       0.000    
  25    10.00       9.881       9.807       9.713       9.621       9.540       9.469       9.403       9.257       9.062    
        8.896       8.730       8.524       8.256       8.051       7.912       7.771       7.615       7.442       7.272    
        7.067       6.836       6.322       5.341       3.565       4.920       5.657       6.080       6.309       6.379    
        6.337       6.229       6.059       5.761       5.400       4.906       4.350       3.844       3.424       2.928    
        2.373       1.818       1.309      0.9725      0.7646      0.5573      0.3784      0.2635      0.1640       0.000    
  26    10.00       9.897       9.826       9.727       9.629       9.554       9.479       9.382       9.237       9.100    
        8.942       8.712       8.457       8.240       8.086       7.952       7.791       7.598       7.431       7.289    
        7.120       6.897       6.462       5.757       4.964       5.341       5.801       6.112       6.310       6.351    
        6.277       6.166       5.946       5.617       5.237       4.774       4.168       3.693       3.306       2.709    
        2.085       1.600       1.296       1.062      0.8245      0.6015      0.4124      0.2862      0.1672       0.000    
  27    10.00       9.918       9.831       9.743       9.658       9.569       9.485       9.387       9.265       9.137    
        8.935       8.672       8.448       8.267       8.139       7.985       7.773       7.574       7.447       7.331    
        7.203       7.003       6.684       6.284       5.888       5.895       6.079       6.267       6.369       6.329    
        6.234       6.112       5.873       5.527       5.096       4.491       3.938       3.557       2.980       2.361    
        1.880       1.570       1.341       1.136      0.9013      0.6565      0.4480      0.3150      0.1987       0.000    
  28    10.00       9.924       9.853       9.773       9.689       9.595       9.502       9.405       9.298       9.146    
        8.905       8.673       8.476       8.298       8.162       8.006       7.836       7.652       7.479       7.364    
        7.265       7.126       6.928       6.657       6.435       6.313       6.351       6.434       6.417       6.329    
        6.204       6.046       5.768       5.360       4.823       4.221       3.764       3.242       2.651       2.217    
        1.876       1.613       1.389       1.175      0.9470      0.7164      0.5082      0.3586      0.2049       0.000    
  29    10.00       9.930       9.860       9.797       9.715       9.630       9.538       9.437       9.318       9.112    
        8.885       8.686       8.494       8.343       8.185       8.020       7.867       7.722       7.564       7.420    
        7.315       7.211       7.086       6.934       6.730       6.626       6.590       6.551       6.473       6.313    
        6.141       5.892       5.595       5.095       4.490       3.992       3.548       3.016       2.548       2.233    
        1.957       1.669       1.415       1.210       1.004      0.7575      0.5369      0.3746      0.2077       0.000    
  30    10.00       9.939       9.881       9.826       9.752       9.667       9.583       9.467       9.305       9.114    
        8.883       8.662       8.504       8.350       8.196       8.050       7.927       7.797       7.647       7.494    
        7.371       7.285       7.184       7.083       6.963       6.831       6.746       6.632       6.482       6.277    
        6.006       5.647       5.291       4.813       4.363       3.911       3.443       2.952       2.602       2.317    
        1.990       1.701       1.481       1.247       1.002      0.7837      0.5722      0.3978      0.2235       0.000    
  31    10.00       9.952       9.903       9.850       9.795       9.725       9.629       9.482       9.293       9.091    
        8.865       8.666       8.521       8.368       8.224       8.086       7.967       7.864       7.710       7.560    
        7.450       7.359       7.275       7.170       7.054       6.931       6.810       6.675       6.470       6.183    
        5.790       5.396       5.068       4.711       4.295       3.825       3.358       2.960       2.716       2.444    
        2.081       1.764       1.513       1.276       1.049      0.8242      0.6062      0.4186      0.2167       0.000    
  32    10.00       9.958       9.923       9.877       9.823       9.757       9.652       9.479       9.305       9.112    
        8.877       8.692       8.553       8.390       8.232       8.116       8.015       7.892       7.765       7.622    
        7.502       7.404       7.301       7.173       7.064       6.979       6.847       6.653       6.369       6.008    
        5.610       5.263       4.954       4.629       4.229       3.811       3.446       3.109       2.829       2.517    
        2.182       1.869       1.605       1.334       1.086      0.8960      0.6682      0.4106      0.1833       0.000    
  33    10.00       9.964       9.937       9.897       9.842       9.770       9.630       9.459       9.319       9.142    
        8.924       8.745       8.574       8.384       8.241       8.149       8.059       7.932       7.794       7.655    
        7.524       7.411       7.273       7.154       7.075       6.988       6.782       6.504       6.221       5.905    
        5.532       5.242       4.931       4.549       4.183       3.818       3.524       3.259       2.939       2.596    
        2.307       2.012       1.722       1.442       1.182      0.9697      0.7146      0.4124      0.1792       0.000    
  34    10.00       9.970       9.949       9.915       9.842       9.733       9.604       9.485       9.338       9.161    
        8.970       8.769       8.568       8.380       8.267       8.192       8.092       7.961       7.797       7.655    
        7.523       7.373       7.234       7.133       7.047       6.902       6.658       6.409       6.137       5.781    
        5.462       5.240       4.933       4.570       4.218       3.887       3.611       3.347       3.020       2.711    
        2.454       2.171       1.854       1.575       1.311       1.068      0.7640      0.4638      0.2432       0.000    
  35    10.00       9.975       9.948       9.899       9.808       9.701       9.607       9.503       9.382       9.186    
        8.970       8.761       8.555       8.404       8.308       8.226       8.108       7.963       7.792       7.621    
        7.443       7.295       7.158       7.066       6.972       6.829       6.585       6.306       5.998       5.641    
        5.412       5.175       4.876       4.614       4.324       3.981       3.681       3.462       3.155       2.828    
        2.580       2.290       1.973       1.698       1.424       1.158      0.8756      0.5803      0.2871       0.000    
  36    10.00       9.969       9.926       9.871       9.785       9.686       9.607       9.515       9.381       9.186    
        8.944       8.718       8.573       8.463       8.364       8.250       8.106       7.947       7.747       7.487    
        7.298       7.184       7.075       6.997       6.909       6.732       6.463       6.170       5.804       5.503    
        5.319       5.131       4.881       4.633       4.393       4.089       3.792       3.561       3.288       2.932    
        2.660       2.337       2.021       1.811       1.545       1.249      0.9658      0.6572      0.3215       0.000    
  37    10.00       9.951       9.905       9.849       9.765       9.677       9.587       9.497       9.371       9.140    
        8.886       8.716       8.632       8.522       8.391       8.270       8.074       7.868       7.588       7.314    
        7.213       7.118       7.012       6.923       6.816       6.600       6.339       5.955       5.634       5.451    
        5.300       5.106       4.863       4.671       4.428       4.141       3.910       3.689       3.382       2.991    
        2.635       2.332       2.112       1.895       1.628       1.347       1.064      0.7248      0.3980       0.000    
  38    10.00       9.944       9.883       9.825       9.750       9.666       9.567       9.470       9.323       9.104    
        8.914       8.781       8.672       8.564       8.413       8.196       7.963       7.708       7.392       7.227    
        7.147       7.017       6.897       6.828       6.697       6.472       6.096       5.750       5.593       5.458    
        5.301       5.099       4.883       4.693       4.457       4.198       4.009       3.784       3.393       2.963    
        2.654       2.401       2.183       1.959       1.723       1.437       1.155      0.8382      0.4142       0.000    
  39    10.00       9.927       9.867       9.814       9.742       9.644       9.539       9.437       9.298       9.118    
        8.968       8.864       8.737       8.578       8.333       8.048       7.786       7.482       7.267       7.171    
        7.032       6.879       6.790       6.721       6.594       6.293       5.932       5.740       5.601       5.463    
        5.286       5.098       4.891       4.703       4.525       4.313       4.065       3.793       3.408       3.007    
        2.682       2.421       2.249       2.061       1.795       1.513       1.226      0.8725      0.4088       0.000    
  40    10.00       9.918       9.861       9.806       9.730       9.629       9.526       9.424       9.300       9.149    
        9.024       8.928       8.757       8.490       8.174       7.889       7.611       7.357       7.208       7.072    
        6.909       6.780       6.712       6.618       6.450       6.184       5.952       5.765       5.613       5.470    
        5.298       5.097       4.904       4.748       4.593       4.379       4.093       3.808       3.417       2.988    
        2.683       2.476       2.287       2.127       1.847       1.538       1.276      0.8750      0.4073       0.000    
  41    10.00       9.925       9.858       9.791       9.709       9.629       9.542       9.447       9.323       9.185    
        9.063       8.939       8.703       8.379       8.054       7.790       7.519       7.281       7.131       6.979    
        6.815       6.706       6.624       6.515       6.345       6.153       6.001       5.822       5.633       5.466    
        5.302       5.123       4.939       4.804       4.639       4.426       4.140       3.747       3.299       2.968    
        2.747       2.547       2.352       2.128       1.837       1.541       1.317      0.9322      0.4227       0.000    
  42    10.00       9.924       9.848       9.789       9.728       9.654       9.561       9.452       9.345       9.237    
        9.073       8.850       8.575       8.265       7.963       7.723       7.458       7.229       7.065       6.893    
        6.740       6.643       6.551       6.453       6.305       6.176       6.049       5.846       5.634       5.485    
        5.353       5.157       4.961       4.830       4.678       4.451       4.099       3.636       3.226       2.980    
        2.814       2.635       2.386       2.088       1.809       1.578       1.345      0.9833      0.4851       0.000    
  43    10.00       9.917       9.853       9.802       9.753       9.681       9.589       9.484       9.363       9.187    
        8.969       8.738       8.481       8.159       7.890       7.668       7.429       7.196       6.988       6.827    
        6.692       6.594       6.519       6.440       6.316       6.185       6.056       5.845       5.662       5.553    
        5.392       5.182       4.994       4.859       4.681       4.387       3.981       3.543       3.244       3.056    
        2.878       2.673       2.367       2.062       1.815       1.592       1.391      0.9972      0.4557       0.000    
  44    10.00       9.917       9.860       9.814       9.756       9.701       9.624       9.481       9.296       9.090    
        8.906       8.673       8.363       8.094       7.881       7.624       7.362       7.113       6.907       6.767    
        6.669       6.587       6.513       6.432       6.326       6.192       6.018       5.845       5.722       5.593    
        5.449       5.266       5.050       4.845       4.628       4.299       3.874       3.513       3.282       3.100    
        2.921       2.677       2.382       2.118       1.854       1.614       1.369      0.9003      0.4140       0.000    
  45    10.00       9.926       9.873       9.813       9.756       9.707       9.579       9.407       9.219       9.042    
        8.890       8.577       8.256       8.060       7.828       7.543       7.257       7.027       6.862       6.752    
        6.678       6.602       6.521       6.426       6.309       6.177       6.031       5.899       5.791       5.657    
        5.490       5.301       5.078       4.819       4.560       4.207       3.808       3.524       3.348       3.161    
        2.922       2.643       2.390       2.149       1.915       1.676       1.278      0.8000      0.4026       0.000    
  46    10.00       9.940       9.883       9.813       9.747       9.651       9.510       9.380       9.222       9.032    
        8.779       8.480       8.223       7.975       7.727       7.450       7.185       7.016       6.881       6.776    
        6.702       6.627       6.524       6.406       6.293       6.183       6.068       5.947       5.839       5.720    
        5.570       5.370       5.118       4.811       4.441       4.074       3.779       3.578       3.395       3.200    
        2.917       2.620       2.368       2.177       1.954       1.643       1.190      0.7641      0.3767       0.000    
  47    10.00       9.951       9.897       9.827       9.713       9.586       9.466       9.364       9.218       8.967    
        8.664       8.390       8.166       7.959       7.696       7.395       7.162       7.001       6.892       6.805    
        6.724       6.636       6.527       6.404       6.295       6.208       6.114       5.995       5.870       5.754    
        5.622       5.455       5.120       4.690       4.329       4.066       3.819       3.646       3.484       3.213    
        2.869       2.555       2.327       2.195       1.948       1.567       1.125      0.7370      0.3724       0.000    
  48    10.00       9.956       9.900       9.795       9.678       9.569       9.448       9.344       9.196       8.913    
        8.582       8.353       8.169       7.915       7.609       7.338       7.163       7.001       6.893       6.824    
        6.742       6.636       6.519       6.406       6.316       6.248       6.164       6.032       5.887       5.762    
        5.625       5.423       5.074       4.717       4.396       4.105       3.885       3.708       3.501       3.157    
        2.787       2.545       2.363       2.130       1.806       1.468       1.089      0.7423      0.3930       0.000    
  49    10.00       9.953       9.869       9.767       9.679       9.562       9.444       9.334       9.148       8.848    
        8.552       8.333       8.103       7.846       7.616       7.363       7.119       6.968       6.902       6.838    
        6.760       6.638       6.503       6.405       6.337       6.286       6.189       6.037       5.885       5.771    
        5.622       5.357       5.050       4.797       4.528       4.207       3.922       3.703       3.459       3.091    
        2.793       2.581       2.330       1.994       1.707       1.402       1.071      0.7545      0.3842       0.000    
  50    10.00       9.941       9.848       9.755       9.684       9.574       9.444       9.304       9.103       8.866    
        8.566       8.273       8.034       7.829       7.644       7.361       7.082       6.968       6.910       6.848    
        6.773       6.636       6.491       6.402       6.348       6.301       6.193       6.030       5.884       5.769    
        5.606       5.327       5.091       4.874       4.582       4.263       3.974       3.684       3.333       3.007    
        2.850       2.626       2.260       1.923       1.682       1.392       1.104      0.7369      0.3027       0.000    

 HEAD WILL BE SAVED ON UNIT   51 AT END OF TIME STEP  12, STRESS PERIOD    2

 DRAWDOWN WILL BE SAVED ON UNIT   52 AT END OF TIME STEP  12, STRESS PERIOD    2
1
  VOLUMETRIC BUDGET FOR ENTIRE MODEL AT END OF TIME STEP 12 IN STRESS PERIOD   2
  ------------------------------------------------------------------------------

     CUMULATIVE VOLUMES      L**3       RATES FOR THIS TIME STEP      L**3/T
     ------------------                 ------------------------

           IN:                                      IN:
           ---                                      ---
             STORAGE =        5999.4546               STORAGE =         499.7805
       CONSTANT HEAD =        7019.1543         CONSTANT HEAD =         540.1117
               WELLS =           0.0000                 WELLS =           0.0000

            TOTAL IN =       13018.6094              TOTAL IN =        1039.8921

          OUT:                                     OUT:
          ----                                     ----
             STORAGE =       9.3466E-03               STORAGE =       2.9411E-05
       CONSTANT HEAD =        7018.5991         CONSTANT HEAD =         539.8918
               WELLS =        6000.0000                 WELLS =         500.0000

           TOTAL OUT =       13018.6084             TOTAL OUT =        1039.8918

            IN - OUT =       9.7656E-04              IN - OUT =       2.4414E-04

 PERCENT DISCREPANCY =           0.00     PERCENT DISCREPANCY =           0.00






          TIME SUMMARY AT END OF TIME STEP  12 IN STRESS PERIOD    2
                    SECONDS     MINUTES      HOURS       DAYS        YEARS
                    -----------------------------------------------------------
   TIME STEP LENGTH  86400.      1440.0      24.000      1.0000     2.73785E-03
 STRESS PERIOD TIME 1.03680E+06  17280.      288.00      12.000     3.28542E-02
         TOTAL TIME 1.12320E+06  18720.      312.00      13.000     3.55921E-02
1
 
 SOLVING FOR HEAD 

 OUTPUT CONTROL FOR STRESS PERIOD    2   TIME STEP  13
    SAVE HEAD FOR ALL LAYERS
    SAVE DRAWDOWN FOR ALL LAYERS
    SAVE BUDGET
    PRINT HEAD FOR ALL LAYERS
    PRINT BUDGET
 UBDSV1 SAVING "         STORAGE" ON UNIT  53 AT TIME STEP 13, STRESS PERIOD   2
 UBDSV2 SAVING "   CONSTANT HEAD" ON UNIT  53 AT TIME STEP 13, STRESS PERIOD   2
 UBDSV1 SAVING "FLOW RIGHT FACE " ON UNIT  53 AT TIME STEP 13, STRESS PERIOD   2
 UBDSV1 SAVING "FLOW FRONT FACE " ON UNIT  53 AT TIME STEP 13, STRESS PERIOD   2
1
              HEAD IN LAYER   1 AT END OF TIME STEP  13 IN STRESS PERIOD    2
  ---------------------------------------------------------------------------

            1           2           3           4           5           6           7           8           9          10
           11          12          13          14          15          16          17          18          19          20
           21          22          23          24          25          26          27          28          29          30
           31          32          33          34          35          36          37          38          39          40
           41          42          43          44          45          46          47          48          49          50
 ........................................................................................................................
   1    10.00       9.960       9.905       9.850       9.804       9.748       9.694       9.637       9.560       9.498    
        9.461       9.424       9.382       9.341       9.275       9.202       9.123       9.061       9.033       9.001    
        8.962       8.928       8.892       8.846       8.782       8.670       8.536       8.404       8.253       8.102    
        7.888       7.549       7.151       6.732       6.263       5.831       5.465       5.124       4.659       4.155    
        3.725       3.300       2.713       2.157       1.767       1.377       1.050      0.8388      0.5562       0.000    
   2    10.00       9.959       9.910       9.855       9.807       9.755       9.694       9.619       9.546       9.498    
        9.465       9.431       9.400       9.348       9.272       9.197       9.125       9.064       9.034       8.998    
        8.958       8.932       8.903       8.855       8.782       8.675       8.540       8.403       8.260       8.110    
        7.878       7.529       7.111       6.638       6.165       5.748       5.421       5.087       4.616       4.143    
        3.709       3.197       2.667       2.226       1.839       1.475       1.101      0.7967      0.4253       0.000    
   3    10.00       9.955       9.908       9.858       9.809       9.750       9.675       9.604       9.557       9.513    
        9.475       9.445       9.414       9.366       9.290       9.197       9.120       9.070       9.032       8.996    
        8.963       8.935       8.906       8.846       8.769       8.661       8.533       8.430       8.279       8.100    
        7.802       7.399       6.957       6.500       6.063       5.673       5.380       5.037       4.529       4.069    
        3.707       3.239       2.749       2.325       1.922       1.554       1.112      0.6836      0.3006       0.000    
   4    10.00       9.959       9.911       9.856       9.796       9.728       9.656       9.603       9.563       9.522    
        9.489       9.464       9.429       9.377       9.308       9.206       9.121       9.075       9.034       9.000    
        8.963       8.930       8.894       8.831       8.752       8.649       8.525       8.410       8.294       8.070    
        7.688       7.198       6.729       6.380       6.050       5.670       5.292       4.859       4.430       4.092    
        3.769       3.352       2.860       2.440       2.017       1.571       1.061      0.6072      0.2828       0.000    
   5    10.00       9.956       9.906       9.843       9.781       9.717       9.655       9.610       9.569       9.533    
        9.504       9.478       9.437       9.377       9.297       9.204       9.132       9.081       9.040       8.994    
        8.951       8.917       8.873       8.807       8.734       8.618       8.495       8.395       8.278       7.997    
        7.503       6.972       6.586       6.319       6.018       5.630       5.200       4.773       4.465       4.177    
        3.882       3.450       2.935       2.567       2.135       1.551      0.9653      0.5604      0.2819       0.000    
   6    10.00       9.946       9.886       9.837       9.778       9.713       9.660       9.619       9.577       9.544    
        9.517       9.485       9.433       9.364       9.295       9.219       9.141       9.079       9.027       8.975    
        8.937       8.902       8.861       8.793       8.685       8.574       8.482       8.374       8.181       7.784    
        7.242       6.768       6.472       6.268       6.023       5.598       5.130       4.784       4.556       4.301    
        4.010       3.617       3.103       2.644       2.109       1.483      0.8655      0.4928      0.2753       0.000    
   7    10.00       9.930       9.874       9.827       9.770       9.723       9.673       9.631       9.595       9.560    
        9.525       9.479       9.417       9.350       9.288       9.226       9.141       9.058       9.003       8.961    
        8.924       8.886       8.843       8.755       8.645       8.554       8.454       8.289       7.975       7.478    
        6.965       6.595       6.408       6.245       5.936       5.521       5.207       4.899       4.647       4.466    
        4.169       3.759       3.207       2.612       1.953       1.236      0.7252      0.5003      0.2533       0.000    
   8    10.00       9.926       9.874       9.823       9.773       9.731       9.688       9.647       9.613       9.579    
        9.529       9.463       9.399       9.340       9.282       9.207       9.108       9.030       8.988       8.947    
        8.905       8.872       8.807       8.716       8.619       8.513       8.330       8.072       7.655       7.229    
        6.841       6.539       6.391       6.193       5.850       5.527       5.264       5.034       4.825       4.607    
        4.297       3.789       3.151       2.473       1.724       1.115      0.7674      0.4907      0.2260       0.000    
   9    10.00       9.930       9.871       9.821       9.785       9.750       9.708       9.669       9.629       9.591    
        9.528       9.449       9.383       9.324       9.256       9.172       9.083       9.015       8.970       8.928    
        8.890       8.839       8.752       8.669       8.573       8.432       8.174       7.793       7.385       7.077    
        6.767       6.534       6.367       6.105       5.787       5.531       5.340       5.157       4.975       4.736    
        4.349       3.818       3.138       2.380       1.690       1.154      0.7827      0.4866      0.2412       0.000    
  10    10.00       9.928       9.869       9.828       9.796       9.762       9.726       9.691       9.646       9.587    
        9.512       9.433       9.369       9.304       9.234       9.139       9.050       8.995       8.955       8.912    
        8.873       8.794       8.701       8.613       8.487       8.288       7.919       7.504       7.173       6.938    
        6.744       6.544       6.329       6.059       5.778       5.574       5.421       5.267       5.061       4.782    
        4.365       3.782       3.054       2.377       1.830       1.322      0.8379      0.5165      0.2721       0.000    
  11    10.00       9.919       9.873       9.839       9.807       9.778       9.745       9.700       9.637       9.571    
        9.497       9.420       9.359       9.276       9.182       9.099       9.035       8.983       8.943       8.897    
        8.830       8.733       8.606       8.481       8.275       7.986       7.659       7.367       7.087       6.905    
        6.739       6.489       6.239       6.036       5.840       5.677       5.520       5.318       5.073       4.746    
        4.353       3.836       3.097       2.477       1.991       1.502      0.9647      0.5113      0.2052       0.000    
  12    10.00       9.926       9.881       9.845       9.818       9.788       9.752       9.692       9.618       9.552    
        9.482       9.407       9.327       9.229       9.151       9.081       9.015       8.971       8.923       8.856    
        8.736       8.577       8.407       8.226       7.977       7.752       7.558       7.268       7.024       6.864    
        6.682       6.455       6.242       6.062       5.922       5.772       5.580       5.350       5.055       4.709    
        4.321       3.814       3.135       2.579       2.138       1.609       1.014      0.4831      0.1607       0.000    
  13    10.00       9.943       9.901       9.862       9.828       9.793       9.742       9.669       9.593       9.528    
        9.456       9.382       9.300       9.201       9.114       9.045       8.998       8.944       8.880       8.740    
        8.532       8.341       8.155       7.933       7.735       7.620       7.393       7.130       6.987       6.841    
        6.637       6.429       6.265       6.123       5.999       5.859       5.634       5.343       5.050       4.690    
        4.301       3.783       3.081       2.562       2.152       1.573      0.9440      0.4368      0.1262       0.000    
  14    10.00       9.958       9.921       9.880       9.839       9.786       9.713       9.637       9.570       9.498    
        9.427       9.360       9.265       9.158       9.080       9.024       8.955       8.881       8.743       8.506    
        8.284       8.110       7.869       7.681       7.580       7.452       7.223       7.058       6.927       6.784    
        6.600       6.446       6.332       6.198       6.062       5.910       5.655       5.331       5.015       4.647    
        4.229       3.605       2.944       2.524       2.023       1.468      0.9315      0.3992      0.1027       0.000    
  15    10.00       9.967       9.929       9.889       9.842       9.764       9.675       9.609       9.543       9.474    
        9.421       9.345       9.223       9.109       9.040       8.952       8.864       8.773       8.550       8.273    
        8.084       7.841       7.613       7.531       7.459       7.304       7.114       6.953       6.849       6.734    
        6.598       6.491       6.388       6.269       6.118       5.927       5.630       5.263       4.930       4.590    
        4.138       3.528       2.955       2.390       1.784       1.288      0.8013      0.3519      0.1056       0.000    
  16    10.00       9.976       9.939       9.891       9.820       9.724       9.648       9.595       9.536       9.466    
        9.396       9.292       9.156       9.049       8.955       8.855       8.794       8.622       8.302       8.042    
        7.845       7.598       7.499       7.440       7.325       7.134       6.978       6.886       6.825       6.731    
        6.617       6.522       6.437       6.309       6.124       5.888       5.533       5.198       4.932       4.564    
        4.048       3.392       2.735       2.109       1.595       1.105      0.6830      0.3342      0.1127       0.000    
  17    10.00       9.976       9.938       9.876       9.787       9.692       9.629       9.581       9.516       9.440    
        9.329       9.200       9.082       8.969       8.856       8.761       8.621       8.339       8.033       7.843    
        7.645       7.478       7.399       7.287       7.109       6.960       6.906       6.869       6.816       6.721    
        6.622       6.540       6.459       6.342       6.087       5.761       5.454       5.212       4.956       4.491    
        3.804       3.139       2.515       1.902       1.364      0.8941      0.5726      0.2990      0.1228       0.000    
  18    10.00       9.971       9.926       9.852       9.743       9.667       9.618       9.553       9.482       9.379    
        9.248       9.136       9.019       8.873       8.728       8.576       8.373       8.081       7.843       7.670    
        7.501       7.356       7.238       7.080       6.950       6.898       6.875       6.851       6.795       6.714    
        6.634       6.556       6.456       6.266       6.002       5.720       5.452       5.233       4.876       4.260    
        3.561       2.858       2.194       1.693       1.265      0.8383      0.4918      0.2473      0.1185       0.000    
  19    10.00       9.964       9.915       9.808       9.700       9.656       9.602       9.524       9.437       9.329    
        9.211       9.107       8.942       8.726       8.556       8.398       8.149       7.872       7.703       7.567    
        7.389       7.214       7.083       6.956       6.885       6.857       6.839       6.808       6.758       6.703    
        6.643       6.560       6.415       6.219       5.984       5.704       5.455       5.143       4.545       3.916    
        3.357       2.632       2.004       1.607       1.183      0.7562      0.4439      0.2517      0.1289       0.000    
  20    10.00       9.956       9.874       9.765       9.687       9.640       9.582       9.499       9.403       9.306    
        9.187       9.032       8.791       8.577       8.425       8.227       7.975       7.818       7.662       7.469    
        7.272       7.113       6.975       6.881       6.828       6.798       6.763       6.742       6.712       6.681    
        6.633       6.547       6.386       6.182       5.934       5.683       5.375       4.818       4.184       3.689    
        3.088       2.424       1.955       1.571       1.143      0.6707      0.3875      0.2620      0.1350       0.000    
  21    10.00       9.927       9.840       9.749       9.673       9.624       9.562       9.466       9.372       9.281    
        9.123       8.891       8.648       8.486       8.315       8.105       7.913       7.762       7.573       7.366    
        7.172       7.016       6.893       6.795       6.726       6.676       6.657       6.656       6.645       6.633    
        6.605       6.503       6.325       6.114       5.857       5.580       5.111       4.536       4.035       3.435    
        2.869       2.348       1.952       1.564      0.9621      0.5425      0.3921      0.2958      0.1418       0.000    
  22    10.00       9.908       9.804       9.724       9.664       9.605       9.519       9.431       9.349       9.224    
        9.026       8.766       8.573       8.426       8.234       8.015       7.827       7.663       7.486       7.287    
        7.094       6.928       6.768       6.621       6.534       6.514       6.528       6.540       6.562       6.565    
        6.536       6.417       6.256       6.030       5.758       5.481       4.997       4.435       3.784       3.208    
        2.799       2.383       1.907       1.259      0.7493      0.5404      0.4108      0.2734      0.1011       0.000    
  23    10.00       9.882       9.781       9.718       9.656       9.569       9.477       9.412       9.309       9.155    
        8.925       8.702       8.563       8.380       8.127       7.904       7.753       7.617       7.450       7.235    
        7.031       6.837       6.610       6.340       6.140       6.184       6.313       6.396       6.460       6.488    
        6.454       6.337       6.170       5.963       5.699       5.379       4.887       4.198       3.552       3.146    
        2.770       2.246       1.567       1.013      0.7368      0.5508      0.3939      0.2323      9.2446E-02   0.000    
  24    10.00       9.865       9.792       9.717       9.629       9.540       9.469       9.397       9.299       9.096    
        8.879       8.714       8.555       8.310       8.027       7.865       7.736       7.603       7.412       7.210    
        7.028       6.784       6.420       5.906       5.274       5.548       5.945       6.212       6.352       6.400    
        6.370       6.260       6.107       5.880       5.600       5.213       4.604       3.960       3.474       3.052    
        2.591       2.010       1.404      0.9817      0.7378      0.5364      0.3592      0.2516      0.1235       0.000    
  25    10.00       9.881       9.807       9.713       9.621       9.539       9.469       9.403       9.256       9.059    
        8.891       8.723       8.513       8.239       8.029       7.886       7.742       7.582       7.406       7.233    
        7.026       6.793       6.275       5.290       3.510       4.865       5.603       6.028       6.262       6.339    
        6.306       6.205       6.042       5.751       5.394       4.903       4.349       3.844       3.424       2.928    
        2.373       1.818       1.309      0.9725      0.7646      0.5573      0.3784      0.2635      0.1640       0.000    
  26    10.00       9.897       9.826       9.727       9.629       9.554       9.479       9.381       9.235       9.097    
        8.938       8.704       8.445       8.223       8.065       7.928       7.762       7.565       7.395       7.251    
        7.080       6.854       6.415       5.706       4.909       5.285       5.744       6.057       6.262       6.314    
        6.250       6.144       5.931       5.608       5.232       4.772       4.167       3.693       3.305       2.709    
        2.085       1.600       1.296       1.062      0.8244      0.6015      0.4124      0.2862      0.1672       0.000    
  27    10.00       9.918       9.831       9.743       9.657       9.569       9.485       9.386       9.264       9.135    
        8.931       8.664       8.436       8.251       8.120       7.962       7.745       7.542       7.411       7.294    
        7.164       6.961       6.638       6.235       5.834       5.838       6.022       6.214       6.326       6.297    
        6.209       6.093       5.860       5.520       5.093       4.489       3.938       3.557       2.980       2.361    
        1.880       1.570       1.341       1.136      0.9013      0.6565      0.4480      0.3150      0.1987       0.000    
  28    10.00       9.924       9.853       9.773       9.689       9.595       9.501       9.404       9.297       9.144    
        8.901       8.666       8.465       8.284       8.144       7.985       7.810       7.622       7.446       7.328    
        7.227       7.086       6.885       6.610       6.383       6.259       6.298       6.388       6.379       6.301    
        6.182       6.030       5.758       5.355       4.821       4.220       3.763       3.242       2.651       2.217    
        1.876       1.613       1.389       1.175      0.9470      0.7164      0.5082      0.3586      0.2049       0.000    
  29    10.00       9.930       9.860       9.797       9.715       9.630       9.537       9.436       9.317       9.110    
        8.881       8.679       8.484       8.330       8.169       8.000       7.843       7.694       7.533       7.386    
        7.279       7.173       7.046       6.891       6.683       6.577       6.545       6.512       6.442       6.290    
        6.124       5.881       5.589       5.092       4.489       3.992       3.548       3.016       2.548       2.233    
        1.957       1.669       1.415       1.210       1.004      0.7575      0.5369      0.3746      0.2077       0.000    
  30    10.00       9.939       9.881       9.826       9.752       9.667       9.583       9.467       9.303       9.112    
        8.878       8.656       8.495       8.338       8.182       8.032       7.906       7.773       7.619       7.463    
        7.338       7.250       7.146       7.044       6.923       6.794       6.714       6.602       6.459       6.261    
        5.995       5.641       5.288       4.812       4.363       3.911       3.443       2.952       2.602       2.317    
        1.990       1.701       1.481       1.247       1.002      0.7837      0.5722      0.3978      0.2235       0.000    
  31    10.00       9.951       9.903       9.850       9.795       9.725       9.628       9.481       9.292       9.089    
        8.861       8.661       8.513       8.357       8.211       8.071       7.948       7.843       7.686       7.533    
        7.421       7.328       7.243       7.139       7.027       6.906       6.787       6.654       6.453       6.172    
        5.784       5.393       5.066       4.710       4.295       3.825       3.358       2.960       2.716       2.444    
        2.081       1.764       1.513       1.276       1.049      0.8242      0.6062      0.4186      0.2167       0.000    
  32    10.00       9.958       9.923       9.877       9.823       9.757       9.651       9.479       9.304       9.110    
        8.874       8.687       8.546       8.381       8.221       8.103       8.000       7.874       7.745       7.599    
        7.477       7.378       7.276       7.151       7.045       6.960       6.828       6.638       6.360       6.003    
        5.608       5.261       4.953       4.629       4.228       3.810       3.446       3.109       2.829       2.517    
        2.182       1.869       1.605       1.334       1.086      0.8960      0.6682      0.4106      0.1833       0.000    
  33    10.00       9.964       9.937       9.897       9.842       9.770       9.630       9.459       9.318       9.141    
        8.921       8.741       8.568       8.376       8.232       8.139       8.046       7.917       7.777       7.636    
        7.504       7.390       7.254       7.137       7.058       6.972       6.770       6.496       6.215       5.902    
        5.530       5.241       4.930       4.548       4.183       3.818       3.524       3.259       2.939       2.596    
        2.307       2.012       1.722       1.442       1.182      0.9697      0.7146      0.4124      0.1792       0.000    
  34    10.00       9.970       9.949       9.915       9.842       9.733       9.603       9.484       9.337       9.160    
        8.968       8.766       8.564       8.373       8.259       8.184       8.081       7.950       7.783       7.640    
        7.507       7.358       7.220       7.119       7.034       6.891       6.650       6.404       6.134       5.779    
        5.461       5.240       4.933       4.569       4.217       3.887       3.611       3.347       3.020       2.711    
        2.454       2.171       1.854       1.575       1.311       1.068      0.7640      0.4638      0.2432       0.000    
  35    10.00       9.975       9.948       9.899       9.807       9.701       9.607       9.503       9.381       9.185    
        8.968       8.758       8.551       8.399       8.302       8.218       8.100       7.954       7.782       7.610    
        7.433       7.285       7.149       7.057       6.964       6.822       6.580       6.303       5.996       5.640    
        5.411       5.175       4.876       4.614       4.324       3.981       3.681       3.462       3.155       2.828    
        2.580       2.290       1.973       1.698       1.424       1.158      0.8756      0.5803      0.2871       0.000    
  36    10.00       9.969       9.926       9.871       9.785       9.686       9.607       9.515       9.380       9.185    
        8.943       8.716       8.570       8.459       8.359       8.245       8.099       7.940       7.740       7.480    
        7.291       7.178       7.069       6.991       6.903       6.728       6.461       6.168       5.803       5.502    
        5.319       5.131       4.881       4.633       4.393       4.089       3.792       3.561       3.288       2.932    
        2.660       2.337       2.021       1.811       1.545       1.249      0.9658      0.6572      0.3215       0.000    
  37    10.00       9.951       9.905       9.849       9.765       9.677       9.586       9.497       9.371       9.140    
        8.885       8.714       8.630       8.519       8.387       8.266       8.069       7.863       7.583       7.310    
        7.209       7.113       7.008       6.919       6.812       6.598       6.337       5.954       5.634       5.451    
        5.300       5.106       4.863       4.670       4.428       4.141       3.910       3.689       3.382       2.991    
        2.635       2.332       2.112       1.895       1.628       1.347       1.064      0.7248      0.3980       0.000    
  38    10.00       9.944       9.883       9.825       9.750       9.666       9.567       9.470       9.322       9.104    
        8.913       8.779       8.671       8.562       8.411       8.193       7.960       7.705       7.390       7.225    
        7.144       7.014       6.895       6.825       6.695       6.471       6.095       5.749       5.592       5.457    
        5.301       5.098       4.883       4.693       4.457       4.198       4.009       3.784       3.393       2.963    
        2.654       2.401       2.183       1.959       1.723       1.437       1.155      0.8382      0.4142       0.000    
  39    10.00       9.927       9.867       9.814       9.742       9.644       9.539       9.437       9.297       9.118    
        8.967       8.863       8.736       8.577       8.331       8.047       7.784       7.480       7.266       7.169    
        7.030       6.877       6.789       6.720       6.592       6.292       5.932       5.739       5.601       5.463    
        5.286       5.098       4.891       4.703       4.525       4.313       4.065       3.793       3.408       3.007    
        2.682       2.421       2.249       2.061       1.795       1.513       1.226      0.8725      0.4088       0.000    
  40    10.00       9.918       9.861       9.806       9.730       9.629       9.526       9.424       9.300       9.149    
        9.023       8.927       8.756       8.490       8.174       7.889       7.610       7.356       7.207       7.071    
        6.908       6.779       6.711       6.618       6.449       6.183       5.952       5.765       5.613       5.470    
        5.298       5.097       4.904       4.748       4.593       4.379       4.093       3.808       3.417       2.988    
        2.683       2.476       2.287       2.127       1.847       1.538       1.276      0.8750      0.4073       0.000    
  41    10.00       9.925       9.858       9.791       9.709       9.629       9.542       9.447       9.323       9.184    
        9.063       8.938       8.703       8.378       8.054       7.790       7.519       7.280       7.131       6.978    
        6.814       6.705       6.624       6.515       6.344       6.153       6.001       5.822       5.632       5.466    
        5.302       5.123       4.939       4.804       4.639       4.426       4.140       3.747       3.299       2.968    
        2.747       2.547       2.352       2.128       1.837       1.541       1.317      0.9322      0.4227       0.000    
  42    10.00       9.924       9.848       9.789       9.728       9.654       9.561       9.452       9.345       9.236    
        9.073       8.850       8.575       8.265       7.963       7.723       7.458       7.229       7.064       6.892    
        6.740       6.643       6.551       6.453       6.305       6.175       6.049       5.845       5.634       5.485    
        5.352       5.157       4.961       4.830       4.678       4.451       4.099       3.636       3.226       2.980    
        2.814       2.635       2.386       2.088       1.809       1.578       1.345      0.9833      0.4851       0.000    
  43    10.00       9.917       9.853       9.802       9.753       9.681       9.589       9.484       9.362       9.187    
        8.969       8.737       8.481       8.159       7.890       7.668       7.429       7.196       6.988       6.827    
        6.692       6.594       6.519       6.439       6.316       6.185       6.056       5.845       5.662       5.553    
        5.392       5.182       4.994       4.859       4.681       4.387       3.981       3.543       3.244       3.056    
        2.878       2.673       2.367       2.062       1.815       1.592       1.391      0.9972      0.4557       0.000    
  44    10.00       9.917       9.860       9.814       9.756       9.701       9.624       9.481       9.296       9.090    
        8.906       8.673       8.363       8.094       7.880       7.624       7.362       7.113       6.907       6.766    
        6.669       6.587       6.513       6.432       6.326       6.192       6.018       5.845       5.722       5.593    
        5.449       5.266       5.050       4.845       4.628       4.299       3.874       3.513       3.282       3.100    
        2.921       2.677       2.382       2.118       1.854       1.614       1.369      0.9003      0.4140       0.000    
  45    10.00       9.926       9.873       9.813       9.756       9.707       9.579       9.407       9.219       9.042    
        8.890       8.577       8.256       8.060       7.828       7.543       7.257       7.027       6.862       6.752    
        6.678       6.602       6.521       6.426       6.309       6.177       6.031       5.899       5.791       5.657    
        5.490       5.301       5.078       4.819       4.560       4.207       3.808       3.524       3.348       3.161    
        2.922       2.643       2.390       2.149       1.915       1.676       1.278      0.8000      0.4026       0.000    
  46    10.00       9.940       9.883       9.813       9.747       9.651       9.510       9.380       9.222       9.032    
        8.779       8.480       8.223       7.975       7.727       7.450       7.185       7.016       6.881       6.776    
        6.702       6.627       6.524       6.406       6.293       6.183       6.068       5.947       5.839       5.720    
        5.570       5.370       5.118       4.811       4.441       4.074       3.779       3.578       3.395       3.200    
        2.917       2.620       2.368       2.177       1.954       1.643       1.190      0.7641      0.3767       0.000    
  47    10.00       9.951       9.897       9.827       9.713       9.586       9.466       9.364       9.218       8.967    
        8.664       8.390       8.166       7.959       7.696       7.395       7.162       7.001       6.892       6.805    
        6.724       6.636       6.527       6.404       6.295       6.208       6.114       5.995       5.870       5.753    
        5.622       5.455       5.120       4.690       4.329       4.066       3.819       3.646       3.484       3.213    
        2.869       2.555       2.327       2.195       1.948       1.567       1.125      0.7370      0.3724       0.000    
  48    10.00       9.956       9.900       9.795       9.678       9.568       9.448       9.344       9.196       8.913    
        8.582       8.353       8.169       7.915       7.609       7.338       7.162       7.001       6.893       6.824    
        6.742       6.636       6.519       6.406       6.316       6.248       6.164       6.032       5.887       5.762    
        5.625       5.423       5.074       4.717       4.396       4.105       3.885       3.708       3.501       3.157    
        2.787       2.545       2.363       2.130       1.806       1.468       1.089      0.7423      0.3930       0.000    
  49    10.00       9.953       9.869       9.767       9.679       9.562       9.444       9.334       9.148       8.848    
        8.552       8.333       8.103       7.846       7.616       7.363       7.119       6.968       6.902       6.838    
        6.760       6.638       6.503       6.405       6.337       6.286       6.189       6.037       5.885       5.771    
        5.622       5.357       5.050       4.797       4.528       4.207       3.922       3.703       3.459       3.091    
        2.793       2.581       2.330       1.994       1.707       1.402       1.071      0.7545      0.3842       0.000    
  50    10.00       9.941       9.848       9.755       9.684       9.574       9.444       9.304       9.103       8.866    
        8.566       8.273       8.034       7.829       7.643       7.361       7.082       6.968       6.910       6.848    
        6.773       6.636       6.491       6.402       6.348       6.301       6.193       6.029       5.884       5.769    
        5.606       5.327       5.091       4.874       4.582       4.263       3.974       3.684       3.333       3.007    
        2.850       2.626       2.260       1.923       1.682       1.392       1.104      0.7369      0.3027       0.000    

 HEAD WILL BE SAVED ON UNIT   51 AT END OF TIME STEP  13, STRESS PERIOD    2

 DRAWDOWN WILL BE SAVED ON UNIT   52 AT END OF TIME STEP  13, STRESS PERIOD    2
1
  VOLUMETRIC BUDGET FOR ENTIRE MODEL AT END OF TIME STEP 13 IN STRESS PERIOD   2
  ------------------------------------------------------------------------------

     CUMULATIVE VOLUMES      L**3       RATES FOR THIS TIME STEP      L**3/T
     ------------------                 ------------------------

           IN:                                      IN:
           ---                                      ---
             STORAGE =        6499.1299               STORAGE =         499.6753
       CONSTANT HEAD =        7559.3701         CONSTANT HEAD =         540.2159
               WELLS =           0.0000                 WELLS =           0.0000

            TOTAL IN =       14058.5000              TOTAL IN =        1039.8912

          OUT:                                     OUT:
          ----                                     ----
             STORAGE =       9.3623E-03               STORAGE =       1.5682E-05
       CONSTANT HEAD =        7558.4907         CONSTANT HEAD =         539.8915
               WELLS =        6500.0000                 WELLS =         500.0000

           TOTAL OUT =       14058.5000             TOTAL OUT =        1039.8916

            IN - OUT =           0.0000              IN - OUT =      -3.6621E-04

 PERCENT DISCREPANCY =           0.00     PERCENT DISCREPANCY =           0.00






          TIME SUMMARY AT END OF TIME STEP  13 IN STRESS PERIOD    2
                    SECONDS     MINUTES      HOURS       DAYS        YEARS
                    -----------------------------------------------------------
   TIME STEP LENGTH  86400.      1440.0      24.000      1.0000     2.73785E-03
 STRESS PERIOD TIME 1.12320E+06  18720.      312.00      13.000     3.55921E-02
         TOTAL TIME 1.20960E+06  20160.      336.00      14.000     3.83299E-02
1
 
 SOLVING FOR HEAD 

 OUTPUT CONTROL FOR STRESS PERIOD    2   TIME STEP  14
    SAVE HEAD FOR ALL LAYERS
    SAVE DRAWDOWN FOR ALL LAYERS
    SAVE BUDGET
    PRINT HEAD FOR ALL LAYERS
    PRINT BUDGET
 UBDSV1 SAVING "         STORAGE" ON UNIT  53 AT TIME STEP 14, STRESS PERIOD   2
 UBDSV2 SAVING "   CONSTANT HEAD" ON UNIT  53 AT TIME STEP 14, STRESS PERIOD   2
 UBDSV1 SAVING "FLOW RIGHT FACE " ON UNIT  53 AT TIME STEP 14, STRESS PERIOD   2
 UBDSV1 SAVING "FLOW FRONT FACE " ON UNIT  53 AT TIME STEP 14, STRESS PERIOD   2
1
              HEAD IN LAYER   1 AT END OF TIME STEP  14 IN STRESS PERIOD    2
  ---------------------------------------------------------------------------

            1           2           3           4           5           6           7           8           9          10
           11          12          13          14          15          16          17          18          19          20
           21          22          23          24          25          26          27          28          29          30
           31          32          33          34          35          36          37          38          39          40
           41          42          43          44          45          46          47          48          49          50
 ........................................................................................................................
   1    10.00       9.960       9.905       9.850       9.804       9.748       9.694       9.636       9.560       9.497    
        9.461       9.423       9.382       9.341       9.275       9.202       9.123       9.061       9.032       9.001    
        8.961       8.927       8.891       8.846       8.782       8.670       8.535       8.404       8.252       8.102    
        7.888       7.549       7.151       6.732       6.263       5.831       5.465       5.124       4.659       4.155    
        3.725       3.300       2.713       2.157       1.767       1.377       1.050      0.8388      0.5562       0.000    
   2    10.00       9.959       9.910       9.855       9.806       9.755       9.694       9.619       9.546       9.498    
        9.465       9.431       9.400       9.348       9.272       9.197       9.125       9.064       9.033       8.998    
        8.957       8.931       8.903       8.854       8.781       8.675       8.539       8.402       8.260       8.109    
        7.878       7.529       7.111       6.638       6.165       5.748       5.421       5.087       4.616       4.143    
        3.709       3.197       2.667       2.226       1.839       1.475       1.101      0.7967      0.4253       0.000    
   3    10.00       9.955       9.908       9.858       9.809       9.750       9.674       9.603       9.557       9.513    
        9.474       9.445       9.414       9.366       9.290       9.196       9.120       9.070       9.031       8.996    
        8.962       8.934       8.906       8.846       8.768       8.661       8.533       8.430       8.279       8.100    
        7.802       7.399       6.956       6.500       6.063       5.673       5.380       5.037       4.529       4.069    
        3.707       3.239       2.749       2.325       1.922       1.554       1.112      0.6836      0.3006       0.000    
   4    10.00       9.959       9.911       9.856       9.796       9.728       9.656       9.603       9.563       9.522    
        9.489       9.464       9.429       9.377       9.308       9.206       9.121       9.074       9.033       9.000    
        8.962       8.929       8.894       8.831       8.752       8.649       8.525       8.410       8.293       8.069    
        7.688       7.198       6.729       6.380       6.050       5.670       5.292       4.859       4.430       4.092    
        3.769       3.352       2.860       2.440       2.017       1.571       1.061      0.6072      0.2828       0.000    
   5    10.00       9.956       9.906       9.843       9.780       9.717       9.655       9.610       9.568       9.533    
        9.504       9.478       9.437       9.377       9.296       9.204       9.131       9.080       9.039       8.993    
        8.951       8.917       8.872       8.807       8.733       8.617       8.494       8.395       8.278       7.997    
        7.503       6.972       6.585       6.319       6.017       5.630       5.200       4.773       4.465       4.177    
        3.882       3.450       2.935       2.567       2.135       1.551      0.9653      0.5604      0.2819       0.000    
   6    10.00       9.946       9.886       9.837       9.778       9.712       9.660       9.619       9.576       9.544    
        9.517       9.485       9.433       9.363       9.295       9.218       9.140       9.078       9.026       8.975    
        8.937       8.901       8.860       8.792       8.684       8.574       8.481       8.373       8.181       7.784    
        7.242       6.767       6.472       6.267       6.022       5.597       5.129       4.783       4.556       4.300    
        4.010       3.617       3.103       2.644       2.109       1.483      0.8655      0.4928      0.2753       0.000    
   7    10.00       9.930       9.874       9.827       9.770       9.723       9.673       9.631       9.594       9.560    
        9.524       9.479       9.417       9.350       9.288       9.225       9.140       9.058       9.002       8.960    
        8.923       8.885       8.842       8.754       8.644       8.554       8.453       8.288       7.974       7.477    
        6.964       6.594       6.407       6.244       5.935       5.520       5.207       4.898       4.646       4.465    
        4.168       3.759       3.207       2.612       1.953       1.236      0.7252      0.5003      0.2533       0.000    
   8    10.00       9.926       9.874       9.823       9.773       9.731       9.688       9.647       9.612       9.579    
        9.529       9.463       9.399       9.340       9.282       9.206       9.107       9.029       8.987       8.946    
        8.904       8.871       8.805       8.714       8.617       8.511       8.328       8.071       7.653       7.227    
        6.839       6.537       6.390       6.191       5.848       5.525       5.262       5.033       4.824       4.607    
        4.297       3.789       3.151       2.473       1.724       1.115      0.7674      0.4907      0.2260       0.000    
   9    10.00       9.929       9.871       9.821       9.785       9.750       9.708       9.668       9.629       9.591    
        9.528       9.449       9.383       9.323       9.255       9.171       9.082       9.014       8.969       8.927    
        8.888       8.837       8.750       8.667       8.571       8.430       8.172       7.790       7.382       7.074    
        6.764       6.531       6.364       6.103       5.784       5.529       5.339       5.156       4.974       4.735    
        4.348       3.818       3.138       2.380       1.690       1.154      0.7827      0.4866      0.2412       0.000    
  10    10.00       9.928       9.869       9.828       9.796       9.762       9.726       9.691       9.646       9.587    
        9.511       9.432       9.368       9.304       9.233       9.138       9.049       8.994       8.954       8.911    
        8.871       8.792       8.699       8.610       8.484       8.284       7.915       7.500       7.168       6.933    
        6.739       6.540       6.325       6.055       5.775       5.572       5.419       5.266       5.060       4.781    
        4.364       3.782       3.054       2.377       1.830       1.322      0.8379      0.5165      0.2721       0.000    
  11    10.00       9.919       9.873       9.839       9.807       9.777       9.745       9.699       9.636       9.571    
        9.496       9.420       9.358       9.276       9.181       9.098       9.033       8.981       8.941       8.895    
        8.828       8.730       8.603       8.476       8.270       7.980       7.652       7.360       7.080       6.898    
        6.733       6.484       6.234       6.032       5.836       5.674       5.517       5.317       5.072       4.745    
        4.353       3.836       3.097       2.477       1.991       1.502      0.9647      0.5113      0.2052       0.000    
  12    10.00       9.926       9.881       9.845       9.818       9.787       9.752       9.692       9.618       9.551    
        9.481       9.407       9.326       9.228       9.150       9.080       9.013       8.969       8.921       8.854    
        8.733       8.572       8.400       8.218       7.967       7.741       7.548       7.258       7.015       6.855    
        6.674       6.448       6.236       6.057       5.917       5.769       5.577       5.348       5.054       4.709    
        4.321       3.814       3.135       2.579       2.138       1.609       1.014      0.4831      0.1607       0.000    
  13    10.00       9.943       9.901       9.862       9.828       9.793       9.742       9.668       9.593       9.528    
        9.456       9.382       9.299       9.200       9.112       9.043       8.996       8.942       8.877       8.736    
        8.525       8.332       8.145       7.920       7.720       7.605       7.379       7.115       6.974       6.829    
        6.627       6.420       6.257       6.116       5.993       5.854       5.630       5.341       5.048       4.689    
        4.300       3.783       3.081       2.562       2.152       1.573      0.9440      0.4368      0.1262       0.000    
  14    10.00       9.958       9.921       9.880       9.839       9.786       9.713       9.637       9.570       9.497    
        9.426       9.359       9.263       9.156       9.078       9.021       8.952       8.877       8.738       8.497    
        8.273       8.096       7.853       7.662       7.562       7.434       7.204       7.039       6.909       6.769    
        6.586       6.434       6.321       6.189       6.055       5.904       5.651       5.329       5.013       4.647    
        4.229       3.604       2.944       2.524       2.023       1.468      0.9315      0.3992      0.1027       0.000    
  15    10.00       9.967       9.929       9.889       9.842       9.764       9.675       9.608       9.542       9.473    
        9.420       9.344       9.221       9.107       9.037       8.949       8.860       8.767       8.541       8.260    
        8.069       7.822       7.591       7.509       7.437       7.281       7.092       6.930       6.828       6.715    
        6.582       6.476       6.375       6.259       6.110       5.921       5.626       5.260       4.929       4.590    
        4.137       3.528       2.955       2.390       1.784       1.288      0.8013      0.3519      0.1056       0.000    
  16    10.00       9.976       9.939       9.891       9.820       9.724       9.648       9.594       9.536       9.465    
        9.395       9.291       9.154       9.046       8.951       8.850       8.788       8.613       8.288       8.023    
        7.823       7.573       7.474       7.415       7.299       7.107       6.951       6.861       6.801       6.709    
        6.599       6.506       6.423       6.298       6.115       5.882       5.529       5.196       4.931       4.563    
        4.048       3.392       2.735       2.109       1.595       1.105      0.6830      0.3342      0.1127       0.000    
  17    10.00       9.976       9.938       9.876       9.787       9.692       9.629       9.580       9.516       9.440    
        9.328       9.198       9.079       8.964       8.850       8.754       8.612       8.324       8.013       7.820    
        7.618       7.450       7.371       7.258       7.078       6.929       6.876       6.841       6.790       6.698    
        6.603       6.522       6.443       6.329       6.078       5.756       5.451       5.209       4.954       4.490    
        3.804       3.139       2.515       1.902       1.364      0.8941      0.5726      0.2990      0.1228       0.000    
  18    10.00       9.971       9.926       9.852       9.743       9.667       9.618       9.553       9.481       9.378    
        9.246       9.134       9.015       8.867       8.720       8.565       8.359       8.060       7.818       7.642    
        7.471       7.325       7.206       7.047       6.916       6.865       6.843       6.820       6.767       6.688    
        6.612       6.536       6.440       6.254       5.994       5.714       5.449       5.231       4.875       4.260    
        3.561       2.857       2.194       1.693       1.265      0.8383      0.4917      0.2473      0.1185       0.000    
  19    10.00       9.964       9.915       9.808       9.700       9.656       9.602       9.523       9.436       9.328    
        9.209       9.104       8.938       8.718       8.544       8.383       8.129       7.846       7.675       7.536    
        7.356       7.180       7.048       6.920       6.850       6.823       6.806       6.775       6.727       6.675    
        6.618       6.539       6.398       6.207       5.975       5.698       5.452       5.140       4.544       3.916    
        3.357       2.632       2.004       1.607       1.183      0.7562      0.4439      0.2517      0.1289       0.000    
  20    10.00       9.956       9.874       9.765       9.687       9.640       9.582       9.499       9.403       9.305    
        9.185       9.028       8.784       8.566       8.411       8.209       7.950       7.790       7.632       7.436    
        7.237       7.076       6.938       6.843       6.791       6.761       6.727       6.707       6.678       6.650    
        6.606       6.524       6.369       6.170       5.926       5.678       5.372       4.817       4.184       3.688    
        3.088       2.424       1.955       1.571       1.143      0.6707      0.3875      0.2620      0.1350       0.000    
  21    10.00       9.927       9.840       9.749       9.673       9.624       9.562       9.465       9.371       9.279    
        9.121       8.886       8.639       8.474       8.299       8.084       7.887       7.733       7.541       7.331    
        7.135       6.977       6.855       6.756       6.687       6.637       6.618       6.618       6.609       6.600    
        6.575       6.479       6.308       6.103       5.850       5.575       5.109       4.535       4.035       3.435    
        2.869       2.348       1.952       1.564      0.9621      0.5425      0.3921      0.2958      0.1418       0.000    
  22    10.00       9.908       9.804       9.724       9.664       9.605       9.519       9.431       9.348       9.223    
        9.022       8.759       8.562       8.413       8.215       7.992       7.799       7.632       7.452       7.251    
        7.055       6.888       6.727       6.580       6.493       6.473       6.488       6.500       6.524       6.529    
        6.504       6.393       6.238       6.018       5.751       5.477       4.995       4.434       3.784       3.208    
        2.799       2.383       1.907       1.259      0.7493      0.5404      0.4108      0.2734      0.1011       0.000    
  23    10.00       9.882       9.781       9.718       9.656       9.569       9.476       9.411       9.308       9.153    
        8.920       8.695       8.552       8.365       8.106       7.879       7.724       7.586       7.415       7.198    
        6.992       6.796       6.568       6.296       6.096       6.140       6.270       6.354       6.420       6.450    
        6.421       6.312       6.152       5.951       5.692       5.375       4.886       4.198       3.552       3.146    
        2.770       2.246       1.567       1.013      0.7368      0.5508      0.3939      0.2323      9.2446E-02   0.000    
  24    10.00       9.864       9.792       9.717       9.629       9.540       9.469       9.396       9.297       9.093    
        8.874       8.706       8.545       8.293       8.004       7.839       7.707       7.572       7.377       7.172    
        6.989       6.743       6.376       5.861       5.226       5.500       5.898       6.166       6.310       6.361    
        6.338       6.235       6.089       5.868       5.593       5.209       4.603       3.959       3.474       3.051    
        2.591       2.010       1.404      0.9817      0.7378      0.5364      0.3592      0.2516      0.1235       0.000    
  25    10.00       9.880       9.807       9.713       9.621       9.539       9.468       9.402       9.254       9.055    
        8.886       8.715       8.501       8.221       8.006       7.860       7.713       7.550       7.372       7.196    
        6.986       6.751       6.230       5.242       3.458       4.814       5.552       5.979       6.217       6.301    
        6.275       6.181       6.025       5.740       5.388       4.900       4.348       3.843       3.424       2.928    
        2.373       1.818       1.309      0.9725      0.7646      0.5573      0.3784      0.2635      0.1640       0.000    
  26    10.00       9.897       9.826       9.727       9.628       9.554       9.478       9.380       9.233       9.094    
        8.933       8.697       8.433       8.205       8.044       7.903       7.734       7.533       7.361       7.214    
        7.041       6.813       6.371       5.658       4.858       5.232       5.690       6.006       6.216       6.278    
        6.222       6.122       5.916       5.599       5.227       4.769       4.166       3.693       3.305       2.709    
        2.085       1.600       1.296       1.062      0.8244      0.6015      0.4124      0.2862      0.1672       0.000    
  27    10.00       9.918       9.831       9.743       9.657       9.568       9.484       9.384       9.262       9.132    
        8.926       8.656       8.423       8.235       8.101       7.939       7.717       7.510       7.377       7.259    
        7.127       6.921       6.595       6.188       5.784       5.786       5.969       6.164       6.284       6.265    
        6.184       6.073       5.847       5.512       5.089       4.488       3.937       3.556       2.980       2.361    
        1.880       1.570       1.341       1.136      0.9013      0.6565      0.4480      0.3150      0.1987       0.000    
  28    10.00       9.924       9.853       9.772       9.688       9.594       9.500       9.403       9.295       9.141    
        8.896       8.658       8.454       8.269       8.126       7.964       7.785       7.592       7.413       7.294    
        7.191       7.047       6.844       6.565       6.335       6.208       6.248       6.343       6.342       6.272    
        6.160       6.013       5.747       5.349       4.818       4.220       3.763       3.242       2.651       2.217    
        1.876       1.613       1.389       1.175      0.9470      0.7164      0.5082      0.3586      0.2049       0.000    
  29    10.00       9.930       9.860       9.797       9.714       9.629       9.537       9.435       9.315       9.106    
        8.876       8.671       8.474       8.317       8.152       7.981       7.820       7.668       7.503       7.353    
        7.244       7.136       7.007       6.850       6.638       6.532       6.502       6.473       6.411       6.267    
        6.106       5.869       5.582       5.090       4.488       3.991       3.547       3.016       2.548       2.233    
        1.957       1.669       1.415       1.210       1.004      0.7575      0.5369      0.3746      0.2077       0.000    
  30    10.00       9.939       9.881       9.825       9.751       9.666       9.582       9.466       9.302       9.109    
        8.874       8.649       8.486       8.326       8.167       8.014       7.885       7.750       7.592       7.433    
        7.305       7.216       7.110       7.006       6.885       6.758       6.682       6.573       6.436       6.244    
        5.983       5.634       5.284       4.810       4.362       3.911       3.443       2.952       2.602       2.317    
        1.990       1.701       1.481       1.247       1.002      0.7837      0.5722      0.3978      0.2235       0.000    
  31    10.00       9.951       9.903       9.850       9.795       9.725       9.628       9.480       9.290       9.086    
        8.857       8.654       8.504       8.347       8.198       8.055       7.930       7.823       7.662       7.506    
        7.392       7.297       7.211       7.109       7.000       6.881       6.763       6.633       6.436       6.161    
        5.777       5.390       5.064       4.709       4.295       3.825       3.358       2.960       2.715       2.444    
        2.081       1.764       1.513       1.276       1.049      0.8242      0.6062      0.4186      0.2167       0.000    
  32    10.00       9.958       9.923       9.877       9.823       9.756       9.651       9.478       9.303       9.108    
        8.870       8.682       8.539       8.372       8.209       8.090       7.984       7.856       7.725       7.576    
        7.452       7.351       7.251       7.129       7.025       6.940       6.809       6.622       6.349       5.997    
        5.604       5.260       4.952       4.628       4.228       3.810       3.446       3.109       2.829       2.517    
        2.182       1.869       1.605       1.334       1.086      0.8960      0.6682      0.4106      0.1833       0.000    
  33    10.00       9.964       9.937       9.897       9.842       9.769       9.630       9.458       9.317       9.139    
        8.918       8.737       8.562       8.368       8.222       8.127       8.033       7.902       7.759       7.617    
        7.483       7.369       7.235       7.119       7.041       6.956       6.757       6.487       6.209       5.898    
        5.529       5.240       4.930       4.548       4.183       3.818       3.524       3.259       2.939       2.596    
        2.307       2.012       1.722       1.442       1.182      0.9697      0.7146      0.4124      0.1792       0.000    
  34    10.00       9.970       9.949       9.915       9.842       9.733       9.603       9.484       9.336       9.158    
        8.965       8.762       8.559       8.367       8.251       8.174       8.071       7.938       7.769       7.625    
        7.491       7.342       7.205       7.105       7.021       6.880       6.642       6.399       6.130       5.777    
        5.460       5.239       4.932       4.569       4.217       3.887       3.611       3.347       3.020       2.711    
        2.454       2.171       1.854       1.575       1.311       1.068      0.7640      0.4638      0.2432       0.000    
  35    10.00       9.975       9.948       9.899       9.807       9.700       9.607       9.503       9.381       9.184    
        8.967       8.756       8.547       8.393       8.295       8.211       8.091       7.944       7.771       7.598    
        7.422       7.274       7.139       7.047       6.955       6.814       6.575       6.299       5.994       5.639    
        5.411       5.174       4.876       4.614       4.324       3.981       3.681       3.462       3.155       2.828    
        2.580       2.290       1.973       1.698       1.424       1.158      0.8756      0.5803      0.2871       0.000    
  36    10.00       9.969       9.926       9.871       9.785       9.686       9.606       9.514       9.380       9.184    
        8.942       8.713       8.567       8.455       8.354       8.239       8.093       7.933       7.732       7.472    
        7.284       7.171       7.062       6.984       6.897       6.723       6.458       6.166       5.802       5.502    
        5.318       5.131       4.881       4.633       4.393       4.089       3.792       3.561       3.288       2.932    
        2.660       2.337       2.021       1.811       1.545       1.249      0.9658      0.6572      0.3215       0.000    
  37    10.00       9.951       9.905       9.849       9.765       9.677       9.586       9.497       9.370       9.139    
        8.884       8.712       8.628       8.515       8.383       8.261       8.065       7.858       7.579       7.306    
        7.204       7.109       7.003       6.915       6.808       6.595       6.335       5.953       5.634       5.450    
        5.299       5.106       4.863       4.670       4.428       4.141       3.910       3.689       3.382       2.991    
        2.635       2.332       2.112       1.895       1.628       1.347       1.064      0.7248      0.3980       0.000    
  38    10.00       9.944       9.883       9.825       9.750       9.665       9.567       9.470       9.322       9.103    
        8.912       8.778       8.668       8.560       8.408       8.190       7.957       7.702       7.387       7.222    
        7.141       7.011       6.892       6.822       6.692       6.469       6.094       5.749       5.592       5.457    
        5.301       5.098       4.883       4.693       4.457       4.198       4.009       3.784       3.393       2.963    
        2.654       2.401       2.183       1.959       1.723       1.437       1.155      0.8382      0.4142       0.000    
  39    10.00       9.927       9.867       9.814       9.742       9.644       9.539       9.437       9.297       9.117    
        8.966       8.862       8.734       8.575       8.330       8.045       7.783       7.479       7.264       7.167    
        7.028       6.875       6.787       6.718       6.591       6.292       5.932       5.739       5.601       5.463    
        5.286       5.097       4.891       4.703       4.525       4.313       4.065       3.793       3.408       3.007    
        2.682       2.421       2.249       2.061       1.795       1.513       1.226      0.8725      0.4088       0.000    
  40    10.00       9.918       9.861       9.806       9.730       9.629       9.526       9.424       9.300       9.148    
        9.023       8.926       8.755       8.489       8.173       7.888       7.610       7.355       7.206       7.070    
        6.906       6.778       6.710       6.616       6.449       6.183       5.952       5.765       5.613       5.470    
        5.298       5.097       4.904       4.748       4.593       4.379       4.093       3.808       3.417       2.988    
        2.683       2.476       2.287       2.127       1.847       1.538       1.276      0.8750      0.4073       0.000    
  41    10.00       9.925       9.858       9.791       9.709       9.629       9.542       9.447       9.323       9.184    
        9.062       8.938       8.702       8.378       8.054       7.789       7.518       7.280       7.130       6.978    
        6.814       6.704       6.623       6.514       6.344       6.153       6.001       5.822       5.632       5.466    
        5.302       5.123       4.939       4.804       4.639       4.426       4.140       3.747       3.299       2.968    
        2.747       2.547       2.352       2.128       1.837       1.541       1.317      0.9322      0.4227       0.000    
  42    10.00       9.924       9.848       9.789       9.728       9.654       9.561       9.452       9.345       9.236    
        9.072       8.849       8.575       8.265       7.963       7.723       7.457       7.228       7.064       6.892    
        6.740       6.642       6.550       6.453       6.305       6.175       6.048       5.845       5.634       5.485    
        5.352       5.157       4.961       4.830       4.678       4.451       4.099       3.636       3.226       2.980    
        2.814       2.635       2.386       2.088       1.809       1.578       1.345      0.9833      0.4851       0.000    
  43    10.00       9.917       9.853       9.802       9.753       9.681       9.589       9.484       9.362       9.187    
        8.968       8.737       8.481       8.159       7.890       7.667       7.429       7.196       6.988       6.827    
        6.692       6.594       6.518       6.439       6.316       6.185       6.055       5.845       5.661       5.553    
        5.392       5.182       4.994       4.859       4.681       4.387       3.981       3.543       3.244       3.056    
        2.878       2.673       2.367       2.062       1.815       1.592       1.391      0.9972      0.4557       0.000    
  44    10.00       9.917       9.860       9.814       9.756       9.701       9.624       9.481       9.296       9.090    
        8.906       8.673       8.363       8.094       7.880       7.624       7.362       7.113       6.907       6.766    
        6.669       6.587       6.512       6.432       6.326       6.192       6.018       5.845       5.722       5.593    
        5.449       5.265       5.050       4.845       4.628       4.299       3.874       3.513       3.282       3.100    
        2.921       2.677       2.382       2.118       1.854       1.614       1.369      0.9003      0.4140       0.000    
  45    10.00       9.926       9.873       9.813       9.756       9.707       9.579       9.407       9.219       9.042    
        8.890       8.577       8.255       8.060       7.828       7.543       7.257       7.027       6.862       6.752    
        6.678       6.602       6.521       6.426       6.309       6.177       6.031       5.899       5.791       5.657    
        5.490       5.301       5.078       4.819       4.560       4.207       3.808       3.524       3.348       3.161    
        2.922       2.643       2.390       2.149       1.915       1.676       1.278      0.8000      0.4026       0.000    
  46    10.00       9.940       9.883       9.813       9.747       9.651       9.510       9.380       9.222       9.032    
        8.779       8.480       8.223       7.975       7.727       7.450       7.185       7.016       6.881       6.776    
        6.702       6.627       6.524       6.406       6.293       6.183       6.068       5.947       5.839       5.720    
        5.569       5.370       5.118       4.811       4.441       4.074       3.779       3.578       3.395       3.200    
        2.917       2.620       2.368       2.177       1.954       1.643       1.190      0.7641      0.3767       0.000    
  47    10.00       9.951       9.897       9.827       9.713       9.586       9.466       9.364       9.218       8.967    
        8.664       8.390       8.166       7.959       7.696       7.395       7.162       7.001       6.892       6.805    
        6.724       6.636       6.527       6.404       6.294       6.208       6.114       5.995       5.870       5.753    
        5.622       5.455       5.120       4.690       4.329       4.066       3.819       3.646       3.484       3.213    
        2.869       2.555       2.327       2.195       1.948       1.567       1.125      0.7370      0.3724       0.000    
  48    10.00       9.956       9.900       9.795       9.678       9.568       9.448       9.344       9.196       8.913    
        8.582       8.353       8.169       7.915       7.609       7.338       7.162       7.001       6.893       6.824    
        6.742       6.636       6.519       6.406       6.316       6.248       6.164       6.032       5.887       5.762    
        5.625       5.423       5.074       4.717       4.396       4.105       3.885       3.708       3.501       3.157    
        2.787       2.545       2.363       2.130       1.806       1.468       1.089      0.7423      0.3930       0.000    
  49    10.00       9.953       9.869       9.767       9.679       9.562       9.444       9.334       9.148       8.848    
        8.552       8.333       8.103       7.846       7.616       7.363       7.119       6.968       6.902       6.838    
        6.760       6.638       6.503       6.405       6.336       6.286       6.189       6.037       5.885       5.771    
        5.622       5.357       5.050       4.797       4.528       4.207       3.922       3.703       3.459       3.091    
        2.793       2.581       2.330       1.994       1.707       1.402       1.071      0.7545      0.3842       0.000    
  50    10.00       9.941       9.848       9.755       9.684       9.574       9.444       9.304       9.103       8.866    
        8.566       8.273       8.034       7.829       7.643       7.361       7.082       6.968       6.910       6.848    
        6.773       6.636       6.491       6.402       6.348       6.301       6.193       6.029       5.884       5.769    
        5.606       5.327       5.091       4.874       4.582       4.263       3.974       3.684       3.333       3.007    
        2.850       2.626       2.260       1.923       1.682       1.392       1.104      0.7369      0.3027       0.000    

 HEAD WILL BE SAVED ON UNIT   51 AT END OF TIME STEP  14, STRESS PERIOD    2

 DRAWDOWN WILL BE SAVED ON UNIT   52 AT END OF TIME STEP  14, STRESS PERIOD    2
1
  VOLUMETRIC BUDGET FOR ENTIRE MODEL AT END OF TIME STEP 14 IN STRESS PERIOD   2
  ------------------------------------------------------------------------------

     CUMULATIVE VOLUMES      L**3       RATES FOR THIS TIME STEP      L**3/T
     ------------------                 ------------------------

           IN:                                      IN:
           ---                                      ---
             STORAGE =        6998.6685               STORAGE =         499.5386
       CONSTANT HEAD =        8099.7231         CONSTANT HEAD =         540.3529
               WELLS =           0.0000                 WELLS =           0.0000

            TOTAL IN =       15098.3916              TOTAL IN =        1039.8915

          OUT:                                     OUT:
          ----                                     ----
             STORAGE =       9.3701E-03               STORAGE =       7.7793E-06
       CONSTANT HEAD =        8098.3818         CONSTANT HEAD =         539.8911
               WELLS =        7000.0000                 WELLS =         500.0000

           TOTAL OUT =       15098.3916             TOTAL OUT =        1039.8911

            IN - OUT =           0.0000              IN - OUT =       3.6621E-04

 PERCENT DISCREPANCY =           0.00     PERCENT DISCREPANCY =           0.00






          TIME SUMMARY AT END OF TIME STEP  14 IN STRESS PERIOD    2
                    SECONDS     MINUTES      HOURS       DAYS        YEARS
                    -----------------------------------------------------------
   TIME STEP LENGTH  86400.      1440.0      24.000      1.0000     2.73785E-03
 STRESS PERIOD TIME 1.20960E+06  20160.      336.00      14.000     3.83299E-02
         TOTAL TIME 1.29600E+06  21600.      360.00      15.000     4.10678E-02
1
 
 SOLVING FOR HEAD 

 OUTPUT CONTROL FOR STRESS PERIOD    2   TIME STEP  15
    SAVE HEAD FOR ALL LAYERS
    SAVE DRAWDOWN FOR ALL LAYERS
    SAVE BUDGET
    PRINT HEAD FOR ALL LAYERS
    PRINT BUDGET
 UBDSV1 SAVING "         STORAGE" ON UNIT  53 AT TIME STEP 15, STRESS PERIOD   2
 UBDSV2 SAVING "   CONSTANT HEAD" ON UNIT  53 AT TIME STEP 15, STRESS PERIOD   2
 UBDSV1 SAVING "FLOW RIGHT FACE " ON UNIT  53 AT TIME STEP 15, STRESS PERIOD   2
 UBDSV1 SAVING "FLOW FRONT FACE " ON UNIT  53 AT TIME STEP 15, STRESS PERIOD   2
1
              HEAD IN LAYER   1 AT END OF TIME STEP  15 IN STRESS PERIOD    2
  ---------------------------------------------------------------------------

            1           2           3           4           5           6           7           8           9          10
           11          12          13          14          15          16          17          18          19          20
           21          22          23          24          25          26          27          28          29          30
           31          32          33          34          35          36          37          38          39          40
           41          42          43          44          45          46          47          48          49          50
 ........................................................................................................................
   1    10.00       9.960       9.905       9.850       9.804       9.748       9.694       9.636       9.560       9.497    
        9.460       9.423       9.382       9.341       9.274       9.201       9.122       9.060       9.032       9.000    
        8.961       8.927       8.891       8.845       8.781       8.670       8.535       8.403       8.252       8.101    
        7.888       7.549       7.151       6.732       6.263       5.831       5.464       5.124       4.659       4.155    
        3.725       3.300       2.713       2.157       1.767       1.377       1.050      0.8388      0.5562       0.000    
   2    10.00       9.959       9.910       9.855       9.806       9.755       9.694       9.619       9.546       9.498    
        9.464       9.431       9.399       9.348       9.272       9.197       9.124       9.063       9.033       8.997    
        8.957       8.931       8.902       8.854       8.781       8.675       8.539       8.402       8.260       8.109    
        7.878       7.529       7.111       6.638       6.165       5.748       5.421       5.087       4.616       4.143    
        3.709       3.197       2.667       2.226       1.839       1.475       1.101      0.7967      0.4253       0.000    
   3    10.00       9.955       9.908       9.858       9.809       9.750       9.674       9.603       9.556       9.512    
        9.474       9.445       9.414       9.365       9.289       9.196       9.119       9.069       9.031       8.995    
        8.962       8.934       8.905       8.845       8.768       8.660       8.532       8.429       8.279       8.100    
        7.802       7.398       6.956       6.500       6.063       5.673       5.380       5.037       4.529       4.069    
        3.707       3.239       2.749       2.325       1.922       1.554       1.112      0.6836      0.3006       0.000    
   4    10.00       9.959       9.911       9.856       9.796       9.728       9.656       9.603       9.563       9.522    
        9.488       9.464       9.429       9.377       9.307       9.205       9.120       9.074       9.033       8.999    
        8.962       8.929       8.893       8.830       8.751       8.648       8.524       8.409       8.293       8.069    
        7.688       7.198       6.728       6.380       6.050       5.670       5.292       4.858       4.430       4.092    
        3.769       3.352       2.860       2.440       2.017       1.571       1.061      0.6072      0.2828       0.000    
   5    10.00       9.956       9.906       9.843       9.780       9.717       9.655       9.610       9.568       9.533    
        9.503       9.477       9.437       9.377       9.296       9.203       9.131       9.080       9.038       8.993    
        8.950       8.916       8.871       8.806       8.732       8.616       8.493       8.394       8.277       7.997    
        7.503       6.972       6.585       6.318       6.017       5.629       5.200       4.772       4.465       4.177    
        3.882       3.450       2.935       2.567       2.135       1.551      0.9653      0.5604      0.2819       0.000    
   6    10.00       9.946       9.886       9.837       9.778       9.712       9.659       9.619       9.576       9.543    
        9.517       9.485       9.433       9.363       9.294       9.218       9.140       9.078       9.025       8.974    
        8.936       8.900       8.859       8.791       8.683       8.573       8.480       8.373       8.180       7.783    
        7.241       6.766       6.471       6.266       6.021       5.596       5.129       4.783       4.555       4.300    
        4.010       3.617       3.103       2.644       2.109       1.483      0.8655      0.4928      0.2753       0.000    
   7    10.00       9.930       9.874       9.826       9.770       9.723       9.672       9.630       9.594       9.559    
        9.524       9.479       9.417       9.349       9.287       9.225       9.139       9.057       9.001       8.959    
        8.922       8.884       8.841       8.753       8.643       8.552       8.452       8.287       7.973       7.476    
        6.963       6.592       6.405       6.242       5.934       5.519       5.206       4.897       4.645       4.464    
        4.168       3.759       3.207       2.612       1.953       1.236      0.7252      0.5003      0.2533       0.000    
   8    10.00       9.926       9.874       9.823       9.773       9.731       9.688       9.647       9.612       9.579    
        9.528       9.463       9.398       9.339       9.281       9.206       9.106       9.028       8.986       8.945    
        8.902       8.869       8.804       8.713       8.616       8.510       8.327       8.069       7.651       7.225    
        6.836       6.535       6.388       6.190       5.847       5.524       5.261       5.032       4.823       4.606    
        4.296       3.789       3.151       2.473       1.724       1.115      0.7674      0.4907      0.2260       0.000    
   9    10.00       9.929       9.871       9.821       9.785       9.750       9.708       9.668       9.629       9.591    
        9.528       9.449       9.382       9.323       9.254       9.170       9.081       9.012       8.968       8.926    
        8.887       8.836       8.748       8.665       8.569       8.428       8.169       7.787       7.378       7.070    
        6.760       6.528       6.362       6.100       5.782       5.527       5.337       5.154       4.973       4.735    
        4.348       3.817       3.138       2.380       1.690       1.154      0.7827      0.4866      0.2412       0.000    
  10    10.00       9.928       9.869       9.828       9.796       9.762       9.726       9.691       9.646       9.587    
        9.511       9.432       9.368       9.303       9.233       9.137       9.047       8.993       8.952       8.909    
        8.869       8.790       8.696       8.607       8.481       8.281       7.911       7.495       7.163       6.928    
        6.734       6.536       6.321       6.052       5.772       5.569       5.417       5.264       5.059       4.780    
        4.364       3.781       3.054       2.377       1.830       1.322      0.8379      0.5165      0.2721       0.000    
  11    10.00       9.919       9.873       9.839       9.807       9.777       9.745       9.699       9.636       9.571    
        9.496       9.419       9.358       9.275       9.180       9.097       9.032       8.980       8.940       8.893    
        8.825       8.727       8.599       8.472       8.264       7.973       7.644       7.353       7.073       6.892    
        6.727       6.478       6.229       6.027       5.831       5.670       5.514       5.314       5.070       4.744    
        4.352       3.836       3.097       2.477       1.991       1.502      0.9647      0.5113      0.2052       0.000    
  12    10.00       9.926       9.881       9.845       9.818       9.787       9.752       9.691       9.618       9.551    
        9.481       9.406       9.325       9.226       9.149       9.078       9.011       8.967       8.918       8.851    
        8.729       8.567       8.393       8.210       7.957       7.730       7.537       7.248       7.005       6.847    
        6.666       6.441       6.229       6.051       5.912       5.764       5.574       5.346       5.052       4.708    
        4.320       3.814       3.135       2.579       2.138       1.609       1.014      0.4831      0.1607       0.000    
  13    10.00       9.943       9.901       9.862       9.828       9.793       9.742       9.668       9.592       9.527    
        9.455       9.381       9.298       9.198       9.110       9.040       8.993       8.939       8.874       8.731    
        8.518       8.323       8.133       7.907       7.705       7.591       7.364       7.100       6.960       6.817    
        6.616       6.410       6.248       6.109       5.987       5.849       5.627       5.338       5.047       4.688    
        4.300       3.783       3.081       2.562       2.152       1.573      0.9440      0.4368      0.1262       0.000    
  14    10.00       9.958       9.921       9.880       9.839       9.786       9.713       9.637       9.569       9.497    
        9.426       9.358       9.262       9.154       9.076       9.019       8.948       8.873       8.732       8.489    
        8.261       8.083       7.836       7.644       7.543       7.415       7.185       7.021       6.891       6.753    
        6.572       6.422       6.310       6.180       6.048       5.898       5.647       5.326       5.012       4.646    
        4.228       3.604       2.944       2.524       2.023       1.468      0.9315      0.3992      0.1027       0.000    
  15    10.00       9.967       9.929       9.889       9.842       9.764       9.675       9.608       9.542       9.473    
        9.419       9.343       9.220       9.104       9.034       8.945       8.855       8.761       8.532       8.246    
        8.053       7.803       7.569       7.486       7.415       7.259       7.069       6.908       6.806       6.696    
        6.565       6.462       6.363       6.248       6.101       5.914       5.622       5.258       4.927       4.589    
        4.137       3.528       2.955       2.390       1.784       1.288      0.8013      0.3519      0.1056       0.000    
  16    10.00       9.976       9.939       9.891       9.820       9.724       9.648       9.594       9.535       9.465    
        9.394       9.289       9.152       9.043       8.947       8.844       8.781       8.604       8.274       8.005    
        7.802       7.548       7.449       7.390       7.274       7.081       6.924       6.835       6.778       6.688    
        6.580       6.490       6.409       6.286       6.106       5.875       5.525       5.193       4.929       4.562    
        4.047       3.392       2.735       2.109       1.595       1.105      0.6830      0.3342      0.1127       0.000    
  17    10.00       9.976       9.938       9.876       9.787       9.692       9.628       9.580       9.516       9.439    
        9.326       9.196       9.075       8.960       8.844       8.746       8.602       8.309       7.992       7.796    
        7.592       7.422       7.343       7.229       7.049       6.899       6.846       6.813       6.765       6.676    
        6.583       6.505       6.428       6.316       6.069       5.750       5.447       5.207       4.952       4.489    
        3.803       3.139       2.514       1.902       1.364      0.8941      0.5726      0.2990      0.1228       0.000    
  18    10.00       9.971       9.926       9.852       9.743       9.667       9.617       9.552       9.480       9.377    
        9.245       9.131       9.011       8.861       8.712       8.554       8.344       8.039       7.793       7.615    
        7.441       7.294       7.174       7.015       6.884       6.833       6.812       6.790       6.739       6.664    
        6.590       6.517       6.423       6.241       5.985       5.709       5.445       5.228       4.873       4.259    
        3.561       2.857       2.194       1.693       1.265      0.8383      0.4917      0.2473      0.1185       0.000    
  19    10.00       9.964       9.915       9.808       9.700       9.656       9.602       9.523       9.435       9.326    
        9.207       9.101       8.932       8.709       8.533       8.368       8.109       7.821       7.646       7.506    
        7.324       7.146       7.014       6.885       6.815       6.789       6.773       6.744       6.697       6.648    
        6.593       6.518       6.382       6.194       5.966       5.693       5.448       5.138       4.543       3.915    
        3.357       2.632       2.004       1.607       1.183      0.7562      0.4439      0.2517      0.1289       0.000    
  20    10.00       9.956       9.874       9.765       9.687       9.640       9.582       9.498       9.402       9.304    
        9.182       9.024       8.777       8.555       8.397       8.190       7.926       7.764       7.602       7.404    
        7.202       7.041       6.902       6.807       6.755       6.726       6.692       6.673       6.646       6.620    
        6.579       6.502       6.351       6.158       5.918       5.673       5.368       4.816       4.183       3.688    
        3.088       2.424       1.955       1.571       1.143      0.6707      0.3875      0.2620      0.1350       0.000    
  21    10.00       9.927       9.840       9.749       9.673       9.623       9.561       9.465       9.370       9.278    
        9.118       8.881       8.630       8.461       8.282       8.062       7.862       7.705       7.509       7.297    
        7.099       6.940       6.817       6.718       6.650       6.600       6.581       6.582       6.574       6.567    
        6.545       6.455       6.290       6.091       5.842       5.570       5.106       4.534       4.034       3.435    
        2.869       2.348       1.952       1.564      0.9621      0.5425      0.3921      0.2958      0.1418       0.000    
  22    10.00       9.908       9.804       9.724       9.664       9.605       9.518       9.430       9.347       9.221    
        9.019       8.752       8.551       8.399       8.197       7.969       7.772       7.602       7.419       7.216    
        7.018       6.850       6.688       6.540       6.454       6.434       6.449       6.461       6.487       6.494    
        6.473       6.368       6.220       6.006       5.743       5.472       4.993       4.433       3.784       3.208    
        2.799       2.383       1.907       1.259      0.7493      0.5404      0.4108      0.2734      0.1011       0.000    
  23    10.00       9.882       9.781       9.718       9.655       9.568       9.476       9.410       9.306       9.150    
        8.915       8.686       8.541       8.350       8.085       7.853       7.695       7.555       7.382       7.162    
        6.954       6.757       6.528       6.255       6.054       6.098       6.229       6.313       6.380       6.413    
        6.389       6.287       6.134       5.938       5.684       5.370       4.884       4.197       3.551       3.146    
        2.770       2.246       1.567       1.013      0.7368      0.5508      0.3939      0.2323      9.2446E-02   0.000    
  24    10.00       9.864       9.792       9.717       9.629       9.539       9.468       9.395       9.296       9.090    
        8.868       8.698       8.533       8.277       7.981       7.812       7.679       7.541       7.343       7.136    
        6.951       6.703       6.335       5.818       5.181       5.455       5.853       6.123       6.269       6.323    
        6.306       6.210       6.070       5.855       5.585       5.205       4.601       3.959       3.474       3.051    
        2.591       2.010       1.404      0.9817      0.7378      0.5364      0.3592      0.2516      0.1235       0.000    
  25    10.00       9.880       9.807       9.713       9.621       9.538       9.468       9.401       9.252       9.052    
        8.880       8.707       8.489       8.203       7.984       7.834       7.685       7.519       7.338       7.160    
        6.948       6.712       6.188       5.197       3.410       4.766       5.504       5.933       6.175       6.264    
        6.244       6.157       6.007       5.729       5.382       4.897       4.346       3.842       3.424       2.927    
        2.373       1.818       1.309      0.9725      0.7646      0.5573      0.3784      0.2635      0.1640       0.000    
  26    10.00       9.897       9.826       9.727       9.628       9.553       9.477       9.379       9.231       9.090    
        8.928       8.688       8.420       8.187       8.023       7.879       7.706       7.502       7.327       7.178    
        7.004       6.774       6.329       5.613       4.810       5.182       5.640       5.957       6.173       6.243    
        6.194       6.100       5.900       5.589       5.221       4.766       4.165       3.692       3.305       2.709    
        2.085       1.600       1.296       1.062      0.8244      0.6015      0.4124      0.2862      0.1672       0.000    
  27    10.00       9.918       9.831       9.742       9.657       9.568       9.483       9.383       9.260       9.129    
        8.921       8.647       8.411       8.218       8.081       7.916       7.690       7.479       7.344       7.224    
        7.091       6.883       6.554       6.144       5.736       5.736       5.919       6.117       6.243       6.234    
        6.159       6.053       5.833       5.504       5.084       4.486       3.937       3.556       2.980       2.361    
        1.880       1.570       1.341       1.136      0.9013      0.6565      0.4480      0.3150      0.1987       0.000    
  28    10.00       9.924       9.853       9.772       9.688       9.594       9.499       9.402       9.293       9.138    
        8.890       8.650       8.442       8.253       8.108       7.942       7.760       7.564       7.381       7.260    
        7.156       7.011       6.805       6.523       6.289       6.160       6.201       6.301       6.306       6.244    
        6.137       5.996       5.736       5.343       4.815       4.219       3.762       3.242       2.651       2.217    
        1.876       1.613       1.389       1.175      0.9470      0.7164      0.5082      0.3586      0.2049       0.000    
  29    10.00       9.930       9.860       9.796       9.714       9.628       9.536       9.434       9.313       9.103    
        8.870       8.664       8.463       8.303       8.136       7.961       7.797       7.642       7.474       7.321    
        7.210       7.101       6.971       6.810       6.595       6.488       6.462       6.436       6.380       6.244    
        6.088       5.857       5.574       5.086       4.486       3.991       3.547       3.015       2.548       2.233    
        1.957       1.669       1.415       1.210       1.004      0.7575      0.5369      0.3746      0.2077       0.000    
  30    10.00       9.939       9.881       9.825       9.751       9.666       9.582       9.465       9.300       9.106    
        8.869       8.641       8.476       8.314       8.152       7.996       7.865       7.726       7.565       7.404    
        7.274       7.183       7.076       6.970       6.848       6.723       6.651       6.544       6.412       6.226    
        5.970       5.627       5.280       4.808       4.361       3.910       3.443       2.952       2.602       2.317    
        1.990       1.701       1.481       1.247       1.002      0.7837      0.5722      0.3978      0.2235       0.000    
  31    10.00       9.951       9.903       9.850       9.794       9.724       9.627       9.479       9.288       9.083    
        8.852       8.647       8.496       8.335       8.185       8.039       7.912       7.802       7.639       7.480    
        7.363       7.268       7.181       7.079       6.974       6.856       6.739       6.611       6.419       6.148    
        5.770       5.386       5.062       4.708       4.294       3.824       3.358       2.960       2.715       2.444    
        2.081       1.764       1.513       1.276       1.049      0.8242      0.6062      0.4186      0.2167       0.000    
  32    10.00       9.958       9.923       9.876       9.823       9.756       9.651       9.477       9.301       9.106    
        8.865       8.676       8.531       8.362       8.197       8.076       7.968       7.838       7.704       7.553    
        7.427       7.326       7.226       7.107       7.004       6.921       6.790       6.606       6.338       5.990    
        5.601       5.257       4.951       4.627       4.228       3.810       3.446       3.109       2.829       2.517    
        2.182       1.869       1.605       1.334       1.086      0.8960      0.6682      0.4106      0.1833       0.000    
  33    10.00       9.964       9.936       9.897       9.842       9.769       9.629       9.457       9.316       9.137    
        8.915       8.732       8.556       8.360       8.212       8.115       8.020       7.886       7.742       7.598    
        7.462       7.348       7.215       7.101       7.024       6.939       6.743       6.477       6.203       5.894    
        5.526       5.238       4.929       4.548       4.183       3.818       3.524       3.259       2.939       2.596    
        2.307       2.012       1.722       1.442       1.182      0.9697      0.7146      0.4124      0.1792       0.000    
  34    10.00       9.970       9.949       9.915       9.842       9.733       9.603       9.483       9.335       9.156    
        8.963       8.758       8.554       8.360       8.243       8.164       8.060       7.925       7.755       7.610    
        7.475       7.325       7.190       7.090       7.007       6.868       6.633       6.392       6.126       5.775    
        5.459       5.238       4.932       4.569       4.217       3.887       3.611       3.347       3.020       2.711    
        2.454       2.171       1.854       1.575       1.311       1.068      0.7640      0.4638      0.2432       0.000    
  35    10.00       9.975       9.948       9.899       9.807       9.700       9.606       9.502       9.380       9.182    
        8.965       8.753       8.543       8.387       8.288       8.203       8.082       7.934       7.760       7.586    
        7.410       7.263       7.128       7.036       6.945       6.806       6.569       6.295       5.991       5.638    
        5.410       5.174       4.876       4.614       4.324       3.981       3.681       3.462       3.155       2.828    
        2.580       2.290       1.973       1.698       1.424       1.158      0.8756      0.5803      0.2871       0.000    
  36    10.00       9.969       9.925       9.871       9.785       9.685       9.606       9.514       9.379       9.183    
        8.940       8.711       8.563       8.450       8.349       8.232       8.086       7.926       7.724       7.464    
        7.277       7.164       7.055       6.977       6.890       6.718       6.454       6.164       5.801       5.501    
        5.318       5.130       4.881       4.633       4.393       4.089       3.792       3.561       3.288       2.932    
        2.660       2.337       2.021       1.811       1.545       1.249      0.9658      0.6572      0.3215       0.000    
  37    10.00       9.951       9.905       9.849       9.765       9.677       9.586       9.496       9.370       9.138    
        8.882       8.709       8.625       8.512       8.379       8.256       8.060       7.853       7.573       7.301    
        7.198       7.103       6.998       6.910       6.803       6.592       6.333       5.952       5.633       5.450    
        5.299       5.105       4.863       4.670       4.428       4.141       3.910       3.689       3.382       2.991    
        2.635       2.332       2.112       1.895       1.628       1.347       1.064      0.7248      0.3980       0.000    
  38    10.00       9.943       9.883       9.825       9.750       9.665       9.567       9.470       9.322       9.102    
        8.911       8.776       8.666       8.557       8.404       8.187       7.954       7.699       7.384       7.218    
        7.137       7.007       6.888       6.819       6.690       6.467       6.093       5.749       5.592       5.457    
        5.301       5.098       4.883       4.693       4.457       4.198       4.009       3.784       3.393       2.963    
        2.654       2.401       2.183       1.959       1.723       1.437       1.155      0.8382      0.4142       0.000    
  39    10.00       9.927       9.867       9.814       9.742       9.644       9.539       9.437       9.297       9.117    
        8.965       8.860       8.733       8.573       8.328       8.043       7.781       7.477       7.263       7.165    
        7.026       6.873       6.785       6.716       6.589       6.291       5.931       5.739       5.601       5.463    
        5.286       5.097       4.891       4.703       4.525       4.313       4.065       3.793       3.408       3.007    
        2.682       2.421       2.249       2.061       1.795       1.513       1.226      0.8725      0.4088       0.000    
  40    10.00       9.918       9.861       9.806       9.730       9.628       9.526       9.424       9.299       9.148    
        9.022       8.926       8.754       8.488       8.172       7.887       7.609       7.354       7.205       7.069    
        6.905       6.777       6.708       6.615       6.448       6.183       5.951       5.765       5.613       5.470    
        5.298       5.097       4.904       4.748       4.593       4.379       4.093       3.808       3.417       2.988    
        2.683       2.476       2.287       2.127       1.847       1.538       1.276      0.8750      0.4073       0.000    
  41    10.00       9.925       9.858       9.791       9.709       9.629       9.542       9.447       9.323       9.183    
        9.061       8.937       8.702       8.377       8.053       7.789       7.518       7.279       7.129       6.977    
        6.813       6.704       6.622       6.513       6.343       6.152       6.000       5.822       5.632       5.466    
        5.302       5.123       4.939       4.804       4.639       4.426       4.140       3.747       3.299       2.968    
        2.747       2.547       2.352       2.128       1.837       1.541       1.317      0.9322      0.4227       0.000    
  42    10.00       9.924       9.848       9.789       9.728       9.654       9.561       9.452       9.344       9.236    
        9.072       8.849       8.574       8.264       7.963       7.723       7.457       7.228       7.064       6.891    
        6.739       6.642       6.550       6.452       6.304       6.175       6.048       5.845       5.634       5.485    
        5.352       5.157       4.961       4.830       4.678       4.451       4.099       3.636       3.226       2.980    
        2.814       2.635       2.386       2.088       1.809       1.578       1.345      0.9833      0.4851       0.000    
  43    10.00       9.917       9.853       9.802       9.753       9.681       9.589       9.484       9.362       9.187    
        8.968       8.737       8.481       8.159       7.889       7.667       7.428       7.195       6.988       6.826    
        6.691       6.593       6.518       6.439       6.316       6.185       6.055       5.845       5.661       5.553    
        5.392       5.182       4.994       4.859       4.681       4.387       3.981       3.543       3.244       3.056    
        2.878       2.673       2.367       2.062       1.815       1.592       1.391      0.9972      0.4557       0.000    
  44    10.00       9.917       9.860       9.814       9.755       9.701       9.624       9.481       9.296       9.090    
        8.906       8.673       8.363       8.094       7.880       7.624       7.362       7.112       6.907       6.766    
        6.668       6.587       6.512       6.432       6.325       6.191       6.018       5.845       5.722       5.593    
        5.449       5.265       5.050       4.845       4.628       4.299       3.874       3.513       3.282       3.100    
        2.921       2.677       2.382       2.118       1.854       1.614       1.369      0.9003      0.4140       0.000    
  45    10.00       9.926       9.873       9.813       9.756       9.707       9.579       9.407       9.219       9.042    
        8.890       8.577       8.255       8.060       7.828       7.543       7.257       7.027       6.862       6.752    
        6.678       6.602       6.520       6.426       6.308       6.177       6.031       5.899       5.791       5.657    
        5.490       5.301       5.078       4.819       4.560       4.207       3.808       3.524       3.348       3.161    
        2.922       2.643       2.390       2.149       1.915       1.676       1.278      0.8000      0.4026       0.000    
  46    10.00       9.940       9.883       9.813       9.747       9.651       9.510       9.380       9.222       9.032    
        8.779       8.480       8.223       7.975       7.727       7.450       7.185       7.016       6.880       6.776    
        6.702       6.627       6.523       6.406       6.293       6.182       6.068       5.947       5.838       5.720    
        5.569       5.370       5.118       4.811       4.441       4.074       3.779       3.578       3.395       3.200    
        2.917       2.620       2.368       2.177       1.954       1.643       1.190      0.7641      0.3767       0.000    
  47    10.00       9.951       9.897       9.827       9.713       9.586       9.466       9.364       9.218       8.967    
        8.664       8.390       8.166       7.958       7.696       7.395       7.162       7.001       6.892       6.805    
        6.724       6.636       6.527       6.404       6.294       6.208       6.114       5.994       5.870       5.753    
        5.622       5.455       5.120       4.690       4.329       4.066       3.819       3.646       3.484       3.213    
        2.869       2.555       2.327       2.195       1.948       1.567       1.125      0.7370      0.3724       0.000    
  48    10.00       9.956       9.900       9.795       9.678       9.568       9.448       9.344       9.196       8.913    
        8.582       8.353       8.169       7.915       7.609       7.338       7.162       7.001       6.893       6.824    
        6.742       6.636       6.519       6.406       6.316       6.248       6.164       6.032       5.887       5.762    
        5.624       5.423       5.074       4.717       4.396       4.105       3.885       3.708       3.501       3.157    
        2.787       2.545       2.363       2.130       1.806       1.468       1.089      0.7423      0.3930       0.000    
  49    10.00       9.953       9.869       9.767       9.679       9.562       9.444       9.334       9.148       8.848    
        8.552       8.333       8.103       7.846       7.616       7.363       7.119       6.968       6.902       6.838    
        6.760       6.638       6.502       6.405       6.336       6.286       6.189       6.037       5.885       5.771    
        5.622       5.357       5.050       4.797       4.528       4.207       3.922       3.703       3.459       3.091    
        2.793       2.581       2.330       1.994       1.707       1.402       1.071      0.7545      0.3842       0.000    
  50    10.00       9.941       9.848       9.755       9.684       9.574       9.444       9.304       9.103       8.866    
        8.566       8.273       8.034       7.829       7.643       7.360       7.082       6.968       6.910       6.848    
        6.773       6.636       6.491       6.402       6.348       6.301       6.193       6.029       5.884       5.768    
        5.606       5.327       5.091       4.874       4.582       4.263       3.974       3.684       3.333       3.007    
        2.850       2.626       2.260       1.923       1.682       1.392       1.104      0.7369      0.3027       0.000    

 HEAD WILL BE SAVED ON UNIT   51 AT END OF TIME STEP  15, STRESS PERIOD    2

 DRAWDOWN WILL BE SAVED ON UNIT   52 AT END OF TIME STEP  15, STRESS PERIOD    2
1
  VOLUMETRIC BUDGET FOR ENTIRE MODEL AT END OF TIME STEP 15 IN STRESS PERIOD   2
  ------------------------------------------------------------------------------

     CUMULATIVE VOLUMES      L**3       RATES FOR THIS TIME STEP      L**3/T
     ------------------                 ------------------------

           IN:                                      IN:
           ---                                      ---
             STORAGE =        7498.0317               STORAGE =         499.3632
       CONSTANT HEAD =        8640.2510         CONSTANT HEAD =         540.5276
               WELLS =           0.0000                 WELLS =           0.0000

            TOTAL IN =       16138.2832              TOTAL IN =        1039.8907

          OUT:                                     OUT:
          ----                                     ----
             STORAGE =       9.3738E-03               STORAGE =       3.6885E-06
       CONSTANT HEAD =        8638.2725         CONSTANT HEAD =         539.8903
               WELLS =        7500.0000                 WELLS =         500.0000

           TOTAL OUT =       16138.2822             TOTAL OUT =        1039.8904

            IN - OUT =       9.7656E-04              IN - OUT =       3.6621E-04

 PERCENT DISCREPANCY =           0.00     PERCENT DISCREPANCY =           0.00






          TIME SUMMARY AT END OF TIME STEP  15 IN STRESS PERIOD    2
                    SECONDS     MINUTES      HOURS       DAYS        YEARS
                    -----------------------------------------------------------
   TIME STEP LENGTH  86400.      1440.0      24.000      1.0000     2.73785E-03
 STRESS PERIOD TIME 1.29600E+06  21600.      360.00      15.000     4.10678E-02
         TOTAL TIME 1.38240E+06  23040.      384.00      16.000     4.38056E-02
1
 
 SOLVING FOR HEAD 

 OUTPUT CONTROL FOR STRESS PERIOD    2   TIME STEP  16
    SAVE HEAD FOR ALL LAYERS
    SAVE DRAWDOWN FOR ALL LAYERS
    SAVE BUDGET
    PRINT HEAD FOR ALL LAYERS
    PRINT BUDGET
 UBDSV1 SAVING "         STORAGE" ON UNIT  53 AT TIME STEP 16, STRESS PERIOD   2
 UBDSV2 SAVING "   CONSTANT HEAD" ON UNIT  53 AT TIME STEP 16, STRESS PERIOD   2
 UBDSV1 SAVING "FLOW RIGHT FACE " ON UNIT  53 AT TIME STEP 16, STRESS PERIOD   2
 UBDSV1 SAVING "FLOW FRONT FACE " ON UNIT  53 AT TIME STEP 16, STRESS PERIOD   2
1
              HEAD IN LAYER   1 AT END OF TIME STEP  16 IN STRESS PERIOD    2
  ---------------------------------------------------------------------------

            1           2           3           4           5           6           7           8           9          10
           11          12          13          14          15          16          17          18          19          20
           21          22          23          24          25          26          27          28          29          30
           31          32          33          34          35          36          37          38          39          40
           41          42          43          44          45          46          47          48          49          50
 ........................................................................................................................
   1    10.00       9.960       9.904       9.850       9.804       9.748       9.693       9.636       9.560       9.497    
        9.460       9.423       9.381       9.340       9.274       9.201       9.122       9.060       9.031       9.000    
        8.960       8.926       8.890       8.845       8.781       8.669       8.534       8.403       8.252       8.101    
        7.887       7.549       7.150       6.732       6.263       5.831       5.464       5.124       4.659       4.155    
        3.725       3.300       2.713       2.157       1.767       1.377       1.050      0.8388      0.5562       0.000    
   2    10.00       9.959       9.910       9.855       9.806       9.755       9.694       9.619       9.546       9.497    
        9.464       9.431       9.399       9.348       9.271       9.196       9.124       9.063       9.032       8.996    
        8.956       8.930       8.902       8.853       8.780       8.674       8.538       8.402       8.259       8.109    
        7.877       7.529       7.110       6.638       6.165       5.748       5.421       5.087       4.616       4.143    
        3.709       3.197       2.667       2.226       1.839       1.475       1.101      0.7966      0.4253       0.000    
   3    10.00       9.955       9.908       9.858       9.809       9.749       9.674       9.603       9.556       9.512    
        9.474       9.444       9.413       9.365       9.289       9.195       9.119       9.068       9.030       8.994    
        8.961       8.933       8.905       8.845       8.767       8.660       8.532       8.429       8.278       8.099    
        7.802       7.398       6.956       6.499       6.063       5.673       5.380       5.036       4.529       4.069    
        3.707       3.239       2.749       2.325       1.922       1.554       1.112      0.6836      0.3006       0.000    
   4    10.00       9.959       9.911       9.856       9.796       9.728       9.656       9.603       9.563       9.521    
        9.488       9.463       9.429       9.376       9.307       9.205       9.120       9.073       9.032       8.998    
        8.961       8.928       8.892       8.829       8.750       8.648       8.524       8.409       8.292       8.069    
        7.687       7.198       6.728       6.379       6.050       5.670       5.292       4.858       4.430       4.092    
        3.768       3.352       2.860       2.440       2.017       1.571       1.061      0.6072      0.2827       0.000    
   5    10.00       9.956       9.906       9.843       9.780       9.717       9.654       9.610       9.568       9.532    
        9.503       9.477       9.437       9.376       9.295       9.203       9.130       9.079       9.038       8.992    
        8.949       8.915       8.870       8.805       8.732       8.616       8.493       8.394       8.276       7.996    
        7.502       6.971       6.584       6.317       6.017       5.629       5.199       4.772       4.464       4.176    
        3.881       3.449       2.934       2.566       2.135       1.551      0.9653      0.5604      0.2818       0.000    
   6    10.00       9.946       9.886       9.837       9.778       9.712       9.659       9.619       9.576       9.543    
        9.516       9.484       9.433       9.363       9.294       9.217       9.139       9.077       9.025       8.973    
        8.935       8.899       8.858       8.790       8.682       8.572       8.479       8.372       8.179       7.782    
        7.240       6.765       6.469       6.265       6.020       5.596       5.128       4.782       4.554       4.299    
        4.009       3.616       3.103       2.644       2.109       1.483      0.8655      0.4928      0.2753       0.000    
   7    10.00       9.930       9.874       9.826       9.770       9.723       9.672       9.630       9.594       9.559    
        9.524       9.478       9.416       9.349       9.287       9.224       9.139       9.056       9.000       8.958    
        8.920       8.882       8.840       8.752       8.642       8.551       8.451       8.286       7.971       7.474    
        6.961       6.590       6.403       6.241       5.932       5.518       5.204       4.896       4.645       4.464    
        4.168       3.759       3.207       2.612       1.953       1.236      0.7252      0.5003      0.2533       0.000    
   8    10.00       9.926       9.874       9.823       9.772       9.731       9.687       9.647       9.612       9.579    
        9.528       9.463       9.398       9.339       9.281       9.205       9.105       9.027       8.985       8.944    
        8.901       8.868       8.802       8.711       8.614       8.508       8.325       8.067       7.649       7.222    
        6.834       6.532       6.385       6.188       5.845       5.522       5.259       5.031       4.822       4.605    
        4.296       3.789       3.151       2.473       1.724       1.115      0.7674      0.4907      0.2260       0.000    
   9    10.00       9.929       9.871       9.821       9.785       9.750       9.708       9.668       9.629       9.591    
        9.527       9.448       9.382       9.322       9.254       9.169       9.080       9.011       8.966       8.924    
        8.885       8.834       8.746       8.662       8.566       8.425       8.167       7.784       7.375       7.066    
        6.756       6.525       6.359       6.097       5.779       5.525       5.334       5.153       4.972       4.733    
        4.347       3.817       3.137       2.380       1.690       1.154      0.7827      0.4866      0.2412       0.000    
  10    10.00       9.928       9.869       9.828       9.796       9.762       9.726       9.691       9.645       9.586    
        9.511       9.431       9.367       9.302       9.232       9.135       9.046       8.991       8.950       8.907    
        8.867       8.788       8.693       8.604       8.477       8.277       7.906       7.489       7.157       6.922    
        6.729       6.531       6.317       6.048       5.768       5.566       5.415       5.262       5.057       4.779    
        4.363       3.781       3.054       2.377       1.830       1.322      0.8379      0.5165      0.2721       0.000    
  11    10.00       9.919       9.873       9.839       9.807       9.777       9.745       9.699       9.636       9.570    
        9.495       9.418       9.357       9.274       9.178       9.095       9.030       8.978       8.937       8.890    
        8.823       8.723       8.595       8.467       8.257       7.966       7.636       7.345       7.065       6.884    
        6.720       6.472       6.224       6.022       5.827       5.667       5.511       5.312       5.069       4.743    
        4.352       3.835       3.097       2.477       1.991       1.502      0.9647      0.5113      0.2052       0.000    
  12    10.00       9.926       9.881       9.845       9.818       9.787       9.752       9.691       9.617       9.551    
        9.480       9.405       9.324       9.225       9.147       9.076       9.009       8.964       8.916       8.848    
        8.725       8.561       8.386       8.201       7.946       7.719       7.527       7.237       6.995       6.838    
        6.658       6.433       6.222       6.044       5.907       5.760       5.570       5.344       5.050       4.707    
        4.319       3.813       3.135       2.579       2.138       1.609       1.014      0.4831      0.1607       0.000    
  13    10.00       9.943       9.901       9.862       9.828       9.793       9.742       9.668       9.592       9.527    
        9.454       9.380       9.297       9.197       9.108       9.038       8.991       8.936       8.871       8.726    
        8.510       8.313       8.122       7.893       7.690       7.576       7.349       7.085       6.946       6.805    
        6.605       6.400       6.239       6.101       5.981       5.844       5.622       5.335       5.045       4.687    
        4.299       3.782       3.081       2.561       2.152       1.573      0.9440      0.4368      0.1262       0.000    
  14    10.00       9.958       9.920       9.880       9.839       9.786       9.713       9.636       9.569       9.496    
        9.425       9.357       9.260       9.152       9.073       9.016       8.945       8.869       8.727       8.480    
        8.249       8.069       7.819       7.625       7.524       7.396       7.166       7.002       6.874       6.736    
        6.557       6.409       6.299       6.171       6.040       5.892       5.642       5.323       5.010       4.645    
        4.228       3.604       2.944       2.524       2.023       1.468      0.9315      0.3992      0.1027       0.000    
  15    10.00       9.967       9.929       9.889       9.842       9.763       9.674       9.608       9.541       9.472    
        9.418       9.341       9.218       9.101       9.031       8.941       8.850       8.755       8.522       8.232    
        8.037       7.783       7.547       7.464       7.393       7.236       7.046       6.886       6.785       6.677    
        6.548       6.447       6.350       6.237       6.092       5.907       5.617       5.255       4.926       4.588    
        4.136       3.528       2.955       2.389       1.784       1.288      0.8013      0.3519      0.1056       0.000    
  16    10.00       9.976       9.939       9.891       9.819       9.724       9.648       9.594       9.534       9.464    
        9.393       9.287       9.149       9.039       8.942       8.838       8.775       8.595       8.259       7.986    
        7.781       7.524       7.424       7.365       7.249       7.055       6.898       6.810       6.755       6.668    
        6.562       6.474       6.394       6.274       6.097       5.868       5.521       5.191       4.928       4.561    
        4.047       3.391       2.735       2.109       1.595       1.105      0.6830      0.3342      0.1127       0.000    
  17    10.00       9.976       9.937       9.875       9.787       9.692       9.628       9.579       9.515       9.438    
        9.325       9.194       9.072       8.955       8.838       8.739       8.592       8.294       7.971       7.773    
        7.566       7.395       7.315       7.201       7.020       6.870       6.818       6.786       6.740       6.653    
        6.563       6.487       6.412       6.302       6.059       5.743       5.443       5.204       4.950       4.488    
        3.803       3.138       2.514       1.902       1.364      0.8941      0.5726      0.2990      0.1228       0.000    
  18    10.00       9.971       9.926       9.852       9.743       9.667       9.617       9.552       9.480       9.376    
        9.242       9.128       9.006       8.855       8.703       8.542       8.328       8.018       7.768       7.587    
        7.412       7.264       7.143       6.983       6.852       6.802       6.781       6.761       6.712       6.639    
        6.568       6.498       6.407       6.228       5.976       5.702       5.441       5.225       4.871       4.258    
        3.560       2.857       2.194       1.693       1.265      0.8382      0.4917      0.2473      0.1185       0.000    
  19    10.00       9.964       9.915       9.808       9.700       9.655       9.601       9.522       9.434       9.325    
        9.204       9.098       8.927       8.700       8.520       8.353       8.089       7.796       7.619       7.476    
        7.293       7.114       6.981       6.852       6.782       6.757       6.741       6.713       6.667       6.621    
        6.569       6.497       6.365       6.181       5.957       5.686       5.444       5.135       4.542       3.915    
        3.356       2.632       2.004       1.607       1.183      0.7562      0.4439      0.2517      0.1289       0.000    
  20    10.00       9.956       9.874       9.765       9.687       9.639       9.581       9.497       9.401       9.302    
        9.180       9.020       8.769       8.543       8.382       8.171       7.903       7.737       7.573       7.373    
        7.169       7.007       6.867       6.773       6.721       6.692       6.658       6.641       6.614       6.591    
        6.552       6.479       6.333       6.145       5.909       5.666       5.364       4.814       4.183       3.688    
        3.088       2.424       1.955       1.571       1.143      0.6707      0.3875      0.2620      0.1350       0.000    
  21    10.00       9.927       9.840       9.749       9.672       9.623       9.561       9.464       9.369       9.276    
        9.115       8.875       8.619       8.447       8.265       8.041       7.837       7.677       7.479       7.264    
        7.065       6.905       6.781       6.683       6.614       6.564       6.546       6.547       6.540       6.535    
        6.516       6.431       6.272       6.078       5.834       5.565       5.104       4.533       4.034       3.435    
        2.869       2.348       1.952       1.564      0.9621      0.5425      0.3921      0.2958      0.1418       0.000    
  22    10.00       9.908       9.804       9.723       9.663       9.604       9.518       9.429       9.345       9.219    
        9.015       8.744       8.540       8.384       8.178       7.945       7.745       7.573       7.387       7.182    
        6.983       6.813       6.651       6.503       6.417       6.396       6.412       6.425       6.451       6.460    
        6.443       6.343       6.201       5.993       5.735       5.467       4.990       4.432       3.783       3.208    
        2.799       2.383       1.907       1.259      0.7493      0.5404      0.4108      0.2734      0.1011       0.000    
  23    10.00       9.882       9.781       9.718       9.655       9.568       9.475       9.409       9.305       9.148    
        8.910       8.677       8.530       8.335       8.065       7.828       7.667       7.525       7.350       7.128    
        6.918       6.720       6.489       6.216       6.014       6.058       6.189       6.274       6.343       6.378    
        6.358       6.262       6.115       5.925       5.675       5.365       4.881       4.196       3.551       3.146    
        2.770       2.246       1.567       1.013      0.7368      0.5508      0.3939      0.2323      9.2446E-02   0.000    
  24    10.00       9.864       9.792       9.717       9.628       9.539       9.467       9.394       9.294       9.086    
        8.862       8.689       8.522       8.260       7.959       7.786       7.650       7.510       7.311       7.101    
        6.915       6.665       6.295       5.776       5.139       5.412       5.810       6.082       6.229       6.287    
        6.275       6.186       6.052       5.842       5.576       5.200       4.600       3.958       3.474       3.051    
        2.591       2.010       1.404      0.9817      0.7378      0.5364      0.3592      0.2516      0.1235       0.000    
  25    10.00       9.880       9.806       9.712       9.620       9.538       9.467       9.400       9.250       9.048    
        8.874       8.698       8.477       8.185       7.962       7.809       7.657       7.488       7.305       7.126    
        6.912       6.674       6.148       5.154       3.364       4.721       5.459       5.889       6.134       6.228    
        6.214       6.133       5.988       5.717       5.375       4.893       4.344       3.842       3.423       2.927    
        2.373       1.818       1.309      0.9725      0.7646      0.5573      0.3784      0.2635      0.1640       0.000    
  26    10.00       9.897       9.825       9.727       9.627       9.552       9.476       9.377       9.229       9.087    
        8.923       8.679       8.406       8.169       8.001       7.855       7.679       7.472       7.294       7.144    
        6.968       6.737       6.289       5.570       4.765       5.135       5.593       5.912       6.131       6.208    
        6.167       6.078       5.884       5.579       5.215       4.762       4.163       3.692       3.305       2.709    
        2.085       1.600       1.296       1.062      0.8244      0.6015      0.4124      0.2862      0.1672       0.000    
  27    10.00       9.918       9.830       9.742       9.656       9.567       9.482       9.381       9.257       9.126    
        8.915       8.638       8.397       8.201       8.062       7.893       7.663       7.449       7.313       7.191    
        7.056       6.847       6.515       6.103       5.692       5.689       5.872       6.072       6.204       6.203    
        6.134       6.033       5.818       5.495       5.079       4.484       3.936       3.556       2.979       2.361    
        1.880       1.570       1.341       1.136      0.9013      0.6565      0.4480      0.3150      0.1987       0.000    
  28    10.00       9.924       9.852       9.772       9.688       9.593       9.498       9.400       9.291       9.134    
        8.884       8.641       8.430       8.238       8.090       7.921       7.736       7.536       7.350       7.228    
        7.122       6.975       6.768       6.483       6.246       6.115       6.157       6.260       6.271       6.215    
        6.115       5.978       5.724       5.336       4.812       4.217       3.762       3.241       2.651       2.217    
        1.876       1.613       1.389       1.175      0.9470      0.7164      0.5082      0.3586      0.2049       0.000    
  29    10.00       9.930       9.859       9.796       9.714       9.628       9.535       9.433       9.311       9.099    
        8.864       8.655       8.452       8.290       8.119       7.941       7.774       7.616       7.445       7.290    
        7.178       7.068       6.935       6.773       6.555       6.447       6.422       6.401       6.349       6.220    
        6.069       5.843       5.565       5.083       4.485       3.990       3.547       3.015       2.548       2.233    
        1.957       1.669       1.415       1.210       1.004      0.7575      0.5369      0.3746      0.2077       0.000    
  30    10.00       9.939       9.880       9.825       9.751       9.665       9.581       9.463       9.298       9.103    
        8.863       8.633       8.466       8.301       8.136       7.978       7.844       7.703       7.539       7.375    
        7.243       7.151       7.043       6.935       6.813       6.689       6.620       6.515       6.389       6.207    
        5.957       5.618       5.275       4.806       4.361       3.910       3.443       2.952       2.602       2.317    
        1.990       1.701       1.481       1.247       1.002      0.7837      0.5722      0.3978      0.2235       0.000    
  31    10.00       9.951       9.903       9.850       9.794       9.724       9.627       9.478       9.286       9.080    
        8.847       8.640       8.486       8.324       8.171       8.023       7.893       7.782       7.615       7.454    
        7.336       7.239       7.151       7.050       6.948       6.831       6.715       6.589       6.400       6.135    
        5.762       5.382       5.060       4.707       4.293       3.824       3.357       2.960       2.715       2.444    
        2.081       1.764       1.513       1.276       1.049      0.8242      0.6062      0.4186      0.2167       0.000    
  32    10.00       9.958       9.923       9.876       9.823       9.756       9.650       9.476       9.300       9.103    
        8.861       8.669       8.523       8.352       8.185       8.062       7.952       7.820       7.684       7.530    
        7.403       7.301       7.202       7.085       6.984       6.900       6.770       6.589       6.326       5.982    
        5.596       5.255       4.949       4.627       4.227       3.810       3.446       3.109       2.829       2.517    
        2.182       1.869       1.605       1.334       1.086      0.8960      0.6682      0.4106      0.1833       0.000    
  33    10.00       9.964       9.936       9.897       9.842       9.769       9.629       9.456       9.314       9.134    
        8.911       8.727       8.549       8.351       8.201       8.103       8.006       7.871       7.724       7.579    
        7.441       7.327       7.195       7.083       7.006       6.922       6.729       6.467       6.196       5.890    
        5.524       5.237       4.928       4.547       4.183       3.818       3.524       3.258       2.939       2.596    
        2.307       2.012       1.722       1.442       1.182      0.9697      0.7146      0.4124      0.1792       0.000    
  34    10.00       9.970       9.949       9.915       9.841       9.733       9.602       9.482       9.334       9.154    
        8.960       8.754       8.548       8.352       8.234       8.154       8.048       7.912       7.740       7.594    
        7.459       7.309       7.174       7.075       6.992       6.855       6.624       6.385       6.121       5.772    
        5.458       5.237       4.931       4.569       4.217       3.887       3.611       3.347       3.020       2.711    
        2.454       2.171       1.854       1.575       1.311       1.068      0.7640      0.4638      0.2432       0.000    
  35    10.00       9.975       9.948       9.898       9.807       9.700       9.606       9.501       9.379       9.181    
        8.962       8.749       8.538       8.381       8.280       8.194       8.073       7.923       7.748       7.573    
        7.399       7.252       7.117       7.026       6.935       6.798       6.563       6.291       5.988       5.636    
        5.409       5.173       4.876       4.614       4.324       3.981       3.681       3.462       3.155       2.828    
        2.580       2.290       1.973       1.698       1.424       1.158      0.8756      0.5803      0.2871       0.000    
  36    10.00       9.969       9.925       9.871       9.785       9.685       9.606       9.513       9.378       9.182    
        8.938       8.708       8.560       8.445       8.343       8.225       8.078       7.917       7.716       7.456    
        7.269       7.156       7.047       6.970       6.883       6.712       6.450       6.162       5.800       5.501    
        5.318       5.130       4.881       4.633       4.393       4.089       3.792       3.561       3.288       2.932    
        2.660       2.337       2.021       1.811       1.545       1.249      0.9658      0.6572      0.3215       0.000    
  37    10.00       9.951       9.905       9.849       9.765       9.677       9.586       9.496       9.369       9.137    
        8.880       8.707       8.622       8.508       8.374       8.251       8.054       7.847       7.568       7.296    
        7.193       7.098       6.992       6.904       6.798       6.588       6.330       5.951       5.633       5.450    
        5.299       5.105       4.863       4.670       4.428       4.141       3.910       3.689       3.382       2.991    
        2.635       2.332       2.112       1.895       1.628       1.347       1.064      0.7248      0.3980       0.000    
  38    10.00       9.943       9.883       9.824       9.750       9.665       9.567       9.469       9.321       9.101    
        8.909       8.774       8.663       8.554       8.401       8.183       7.950       7.695       7.381       7.215    
        7.133       7.003       6.885       6.815       6.687       6.465       6.092       5.748       5.592       5.457    
        5.300       5.098       4.883       4.693       4.457       4.198       4.009       3.784       3.393       2.963    
        2.654       2.401       2.183       1.959       1.723       1.437       1.155      0.8382      0.4142       0.000    
  39    10.00       9.927       9.867       9.814       9.741       9.644       9.538       9.436       9.296       9.116    
        8.964       8.859       8.731       8.571       8.325       8.041       7.779       7.475       7.260       7.162    
        7.023       6.871       6.783       6.714       6.588       6.290       5.931       5.739       5.600       5.462    
        5.286       5.097       4.891       4.703       4.525       4.313       4.065       3.793       3.408       3.007    
        2.682       2.421       2.249       2.061       1.795       1.513       1.226      0.8725      0.4088       0.000    
  40    10.00       9.918       9.861       9.806       9.730       9.628       9.525       9.424       9.299       9.147    
        9.021       8.924       8.753       8.486       8.171       7.886       7.607       7.353       7.204       7.067    
        6.904       6.775       6.707       6.614       6.447       6.182       5.951       5.765       5.613       5.470    
        5.298       5.097       4.904       4.748       4.593       4.379       4.093       3.808       3.417       2.988    
        2.683       2.476       2.287       2.127       1.847       1.538       1.276      0.8750      0.4073       0.000    
  41    10.00       9.925       9.858       9.791       9.709       9.628       9.542       9.447       9.322       9.183    
        9.061       8.936       8.701       8.377       8.053       7.788       7.517       7.278       7.129       6.976    
        6.812       6.703       6.621       6.512       6.343       6.152       6.000       5.821       5.632       5.465    
        5.302       5.122       4.939       4.804       4.639       4.426       4.140       3.747       3.299       2.968    
        2.747       2.547       2.352       2.128       1.837       1.541       1.317      0.9322      0.4227       0.000    
  42    10.00       9.924       9.848       9.789       9.728       9.654       9.561       9.452       9.344       9.235    
        9.072       8.849       8.574       8.264       7.962       7.722       7.457       7.227       7.063       6.891    
        6.739       6.641       6.549       6.452       6.304       6.175       6.048       5.845       5.633       5.485    
        5.352       5.157       4.961       4.830       4.678       4.451       4.099       3.636       3.226       2.980    
        2.814       2.635       2.386       2.088       1.809       1.578       1.345      0.9833      0.4851       0.000    
  43    10.00       9.917       9.853       9.802       9.753       9.681       9.588       9.484       9.362       9.186    
        8.968       8.737       8.481       8.158       7.889       7.667       7.428       7.195       6.987       6.826    
        6.691       6.593       6.518       6.439       6.315       6.184       6.055       5.845       5.661       5.553    
        5.392       5.182       4.994       4.859       4.681       4.387       3.981       3.543       3.244       3.056    
        2.878       2.673       2.367       2.062       1.815       1.592       1.391      0.9972      0.4557       0.000    
  44    10.00       9.917       9.860       9.814       9.755       9.701       9.624       9.481       9.296       9.090    
        8.906       8.673       8.363       8.093       7.880       7.624       7.362       7.112       6.907       6.766    
        6.668       6.586       6.512       6.431       6.325       6.191       6.018       5.845       5.722       5.593    
        5.449       5.265       5.050       4.845       4.628       4.299       3.874       3.513       3.282       3.100    
        2.921       2.677       2.382       2.118       1.854       1.614       1.369      0.9003      0.4140       0.000    
  45    10.00       9.926       9.873       9.813       9.756       9.707       9.579       9.407       9.219       9.042    
        8.890       8.577       8.255       8.060       7.828       7.543       7.257       7.027       6.861       6.752    
        6.678       6.601       6.520       6.426       6.308       6.177       6.031       5.899       5.791       5.657    
        5.490       5.300       5.078       4.819       4.560       4.207       3.808       3.524       3.348       3.161    
        2.922       2.643       2.390       2.149       1.915       1.676       1.278      0.8000      0.4026       0.000    
  46    10.00       9.940       9.883       9.813       9.747       9.651       9.510       9.380       9.222       9.032    
        8.779       8.480       8.223       7.975       7.727       7.450       7.185       7.016       6.880       6.776    
        6.702       6.627       6.523       6.406       6.293       6.182       6.068       5.947       5.838       5.720    
        5.569       5.370       5.118       4.810       4.441       4.074       3.779       3.578       3.395       3.200    
        2.917       2.620       2.368       2.177       1.954       1.643       1.190      0.7641      0.3767       0.000    
  47    10.00       9.951       9.897       9.827       9.713       9.586       9.466       9.364       9.218       8.967    
        8.664       8.390       8.166       7.958       7.696       7.395       7.161       7.001       6.892       6.805    
        6.724       6.636       6.527       6.404       6.294       6.208       6.113       5.994       5.869       5.753    
        5.622       5.455       5.120       4.690       4.329       4.066       3.819       3.646       3.484       3.213    
        2.869       2.555       2.327       2.195       1.948       1.567       1.125      0.7370      0.3724       0.000    
  48    10.00       9.956       9.900       9.795       9.678       9.568       9.448       9.344       9.196       8.913    
        8.582       8.353       8.169       7.915       7.609       7.338       7.162       7.001       6.892       6.824    
        6.742       6.636       6.519       6.406       6.316       6.248       6.164       6.032       5.887       5.762    
        5.624       5.423       5.074       4.717       4.396       4.105       3.885       3.708       3.501       3.157    
        2.787       2.545       2.363       2.130       1.806       1.468       1.089      0.7423      0.3930       0.000    
  49    10.00       9.953       9.869       9.767       9.679       9.562       9.444       9.334       9.148       8.848    
        8.552       8.333       8.103       7.846       7.616       7.363       7.119       6.968       6.902       6.838    
        6.760       6.638       6.502       6.405       6.336       6.286       6.189       6.037       5.885       5.771    
        5.622       5.357       5.050       4.797       4.527       4.207       3.922       3.703       3.459       3.091    
        2.793       2.581       2.330       1.994       1.707       1.402       1.071      0.7545      0.3842       0.000    
  50    10.00       9.941       9.848       9.755       9.684       9.574       9.444       9.304       9.103       8.866    
        8.566       8.273       8.033       7.829       7.643       7.360       7.082       6.968       6.910       6.848    
        6.773       6.636       6.491       6.402       6.348       6.301       6.193       6.029       5.884       5.768    
        5.606       5.327       5.091       4.874       4.582       4.263       3.974       3.684       3.333       3.007    
        2.850       2.626       2.260       1.923       1.682       1.392       1.104      0.7369      0.3027       0.000    

 HEAD WILL BE SAVED ON UNIT   51 AT END OF TIME STEP  16, STRESS PERIOD    2

 DRAWDOWN WILL BE SAVED ON UNIT   52 AT END OF TIME STEP  16, STRESS PERIOD    2
1
  VOLUMETRIC BUDGET FOR ENTIRE MODEL AT END OF TIME STEP 16 IN STRESS PERIOD   2
  ------------------------------------------------------------------------------

     CUMULATIVE VOLUMES      L**3       RATES FOR THIS TIME STEP      L**3/T
     ------------------                 ------------------------

           IN:                                      IN:
           ---                                      ---
             STORAGE =        7997.1772               STORAGE =         499.1454
       CONSTANT HEAD =        9180.9951         CONSTANT HEAD =         540.7444
               WELLS =           0.0000                 WELLS =           0.0000

            TOTAL IN =       17178.1719              TOTAL IN =        1039.8898

          OUT:                                     OUT:
          ----                                     ----
             STORAGE =       9.3745E-03               STORAGE =       7.1995E-07
       CONSTANT HEAD =        9178.1621         CONSTANT HEAD =         539.8893
               WELLS =        8000.0000                 WELLS =         500.0000

           TOTAL OUT =       17178.1719             TOTAL OUT =        1039.8894

            IN - OUT =           0.0000              IN - OUT =       3.6621E-04

 PERCENT DISCREPANCY =           0.00     PERCENT DISCREPANCY =           0.00






          TIME SUMMARY AT END OF TIME STEP  16 IN STRESS PERIOD    2
                    SECONDS     MINUTES      HOURS       DAYS        YEARS
                    -----------------------------------------------------------
   TIME STEP LENGTH  86400.      1440.0      24.000      1.0000     2.73785E-03
 STRESS PERIOD TIME 1.38240E+06  23040.      384.00      16.000     4.38056E-02
         TOTAL TIME 1.46880E+06  24480.      408.00      17.000     4.65435E-02
1
 
 SOLVING FOR HEAD 

 OUTPUT CONTROL FOR STRESS PERIOD    2   TIME STEP  17
    SAVE HEAD FOR ALL LAYERS
    SAVE DRAWDOWN FOR ALL LAYERS
    SAVE BUDGET
    PRINT HEAD FOR ALL LAYERS
    PRINT BUDGET
 UBDSV1 SAVING "         STORAGE" ON UNIT  53 AT TIME STEP 17, STRESS PERIOD   2
 UBDSV2 SAVING "   CONSTANT HEAD" ON UNIT  53 AT TIME STEP 17, STRESS PERIOD   2
 UBDSV1 SAVING "FLOW RIGHT FACE " ON UNIT  53 AT TIME STEP 17, STRESS PERIOD   2
 UBDSV1 SAVING "FLOW FRONT FACE " ON UNIT  53 AT TIME STEP 17, STRESS PERIOD   2
1
              HEAD IN LAYER   1 AT END OF TIME STEP  17 IN STRESS PERIOD    2
  ---------------------------------------------------------------------------

            1           2           3           4           5           6           7           8           9          10
           11          12          13          14          15          16          17          18          19          20
           21          22          23          24          25          26          27          28          29          30
           31          32          33          34          35          36          37          38          39          40
           41          42          43          44          45          46          47          48          49          50
 ........................................................................................................................
   1    10.00       9.960       9.904       9.850       9.804       9.748       9.693       9.636       9.559       9.497    
        9.460       9.422       9.381       9.340       9.273       9.200       9.121       9.059       9.030       8.999    
        8.960       8.925       8.889       8.844       8.780       8.668       8.534       8.402       8.251       8.101    
        7.887       7.548       7.150       6.732       6.263       5.830       5.464       5.124       4.659       4.154    
        3.725       3.300       2.713       2.157       1.767       1.377       1.050      0.8388      0.5562       0.000    
   2    10.00       9.959       9.910       9.855       9.806       9.755       9.694       9.619       9.545       9.497    
        9.464       9.430       9.399       9.347       9.271       9.196       9.123       9.062       9.031       8.996    
        8.955       8.929       8.901       8.852       8.780       8.673       8.538       8.401       8.259       8.108    
        7.877       7.528       7.110       6.638       6.165       5.748       5.421       5.086       4.616       4.143    
        3.709       3.197       2.667       2.226       1.839       1.475       1.101      0.7966      0.4253       0.000    
   3    10.00       9.955       9.908       9.858       9.809       9.749       9.674       9.603       9.556       9.512    
        9.473       9.444       9.413       9.364       9.288       9.195       9.118       9.068       9.029       8.994    
        8.960       8.932       8.904       8.844       8.766       8.659       8.531       8.428       8.278       8.099    
        7.802       7.398       6.956       6.499       6.062       5.673       5.379       5.036       4.528       4.069    
        3.707       3.239       2.749       2.325       1.922       1.554       1.112      0.6836      0.3006       0.000    
   4    10.00       9.959       9.911       9.856       9.795       9.727       9.655       9.603       9.563       9.521    
        9.488       9.463       9.428       9.376       9.306       9.204       9.119       9.072       9.031       8.997    
        8.960       8.927       8.891       8.828       8.750       8.647       8.523       8.408       8.292       8.068    
        7.687       7.197       6.728       6.379       6.049       5.669       5.291       4.858       4.430       4.092    
        3.768       3.352       2.860       2.440       2.016       1.571       1.061      0.6071      0.2827       0.000    
   5    10.00       9.956       9.905       9.843       9.780       9.717       9.654       9.609       9.568       9.532    
        9.503       9.477       9.436       9.376       9.295       9.202       9.129       9.078       9.037       8.991    
        8.948       8.914       8.869       8.804       8.731       8.615       8.492       8.393       8.276       7.996    
        7.502       6.970       6.583       6.317       6.016       5.628       5.199       4.771       4.464       4.176    
        3.881       3.449       2.934       2.566       2.135       1.551      0.9653      0.5604      0.2818       0.000    
   6    10.00       9.946       9.885       9.837       9.778       9.712       9.659       9.619       9.576       9.543    
        9.516       9.484       9.432       9.362       9.293       9.217       9.138       9.076       9.024       8.972    
        8.934       8.898       8.857       8.789       8.681       8.571       8.478       8.371       8.179       7.781    
        7.239       6.764       6.468       6.264       6.019       5.595       5.127       4.781       4.554       4.299    
        4.009       3.616       3.103       2.644       2.109       1.483      0.8655      0.4928      0.2753       0.000    
   7    10.00       9.930       9.874       9.826       9.770       9.723       9.672       9.630       9.594       9.559    
        9.524       9.478       9.416       9.348       9.286       9.223       9.138       9.055       8.999       8.956    
        8.919       8.881       8.838       8.750       8.640       8.550       8.450       8.284       7.970       7.473    
        6.959       6.588       6.401       6.239       5.931       5.516       5.203       4.895       4.644       4.463    
        4.167       3.758       3.206       2.612       1.953       1.236      0.7252      0.5003      0.2533       0.000    
   8    10.00       9.926       9.874       9.823       9.772       9.731       9.687       9.647       9.612       9.578    
        9.528       9.462       9.397       9.338       9.280       9.204       9.104       9.026       8.984       8.942    
        8.899       8.866       8.801       8.709       8.612       8.506       8.323       8.065       7.646       7.219    
        6.831       6.530       6.383       6.185       5.843       5.520       5.257       5.029       4.821       4.604    
        4.295       3.788       3.151       2.473       1.724       1.115      0.7674      0.4907      0.2260       0.000    
   9    10.00       9.929       9.871       9.821       9.785       9.749       9.708       9.668       9.628       9.590    
        9.527       9.448       9.381       9.321       9.253       9.168       9.079       9.009       8.965       8.922    
        8.883       8.832       8.743       8.660       8.564       8.422       8.164       7.781       7.370       7.062    
        6.752       6.521       6.355       6.094       5.777       5.522       5.332       5.151       4.970       4.732    
        4.347       3.817       3.137       2.380       1.690       1.154      0.7827      0.4866      0.2412       0.000    
  10    10.00       9.928       9.869       9.828       9.796       9.762       9.725       9.691       9.645       9.586    
        9.510       9.431       9.366       9.301       9.230       9.134       9.044       8.989       8.948       8.905    
        8.865       8.785       8.690       8.601       8.474       8.272       7.900       7.484       7.151       6.916    
        6.724       6.526       6.312       6.043       5.764       5.563       5.412       5.259       5.055       4.778    
        4.362       3.781       3.054       2.377       1.830       1.322      0.8379      0.5165      0.2721       0.000    
  11    10.00       9.919       9.873       9.839       9.807       9.777       9.745       9.699       9.636       9.570    
        9.495       9.418       9.356       9.272       9.177       9.093       9.028       8.976       8.935       8.888    
        8.820       8.720       8.590       8.461       8.251       7.958       7.627       7.337       7.057       6.877    
        6.713       6.466       6.218       6.016       5.822       5.663       5.508       5.310       5.067       4.742    
        4.351       3.835       3.097       2.477       1.991       1.502      0.9647      0.5113      0.2052       0.000    
  12    10.00       9.926       9.881       9.845       9.818       9.787       9.752       9.691       9.617       9.550    
        9.480       9.404       9.323       9.224       9.145       9.074       9.007       8.962       8.913       8.845    
        8.721       8.556       8.379       8.192       7.935       7.707       7.515       7.225       6.984       6.828    
        6.649       6.424       6.215       6.038       5.901       5.755       5.567       5.341       5.049       4.705    
        4.319       3.813       3.134       2.579       2.137       1.609       1.014      0.4831      0.1607       0.000    
  13    10.00       9.942       9.901       9.862       9.828       9.792       9.741       9.668       9.591       9.526    
        9.453       9.379       9.295       9.195       9.106       9.035       8.988       8.933       8.867       8.721    
        8.503       8.304       8.110       7.879       7.675       7.561       7.334       7.070       6.932       6.792    
        6.594       6.390       6.230       6.093       5.974       5.838       5.618       5.332       5.043       4.686    
        4.299       3.782       3.081       2.561       2.152       1.573      0.9440      0.4368      0.1262       0.000    
  14    10.00       9.958       9.920       9.880       9.839       9.786       9.713       9.636       9.568       9.495    
        9.424       9.356       9.259       9.149       9.070       9.012       8.941       8.865       8.721       8.470    
        8.237       8.055       7.802       7.606       7.505       7.377       7.147       6.984       6.856       6.720    
        6.543       6.396       6.288       6.161       6.032       5.885       5.637       5.320       5.008       4.643    
        4.227       3.604       2.944       2.524       2.023       1.468      0.9315      0.3991      0.1027       0.000    
  15    10.00       9.967       9.929       9.889       9.842       9.763       9.674       9.607       9.541       9.471    
        9.417       9.340       9.215       9.098       9.027       8.936       8.844       8.748       8.513       8.219    
        8.020       7.764       7.525       7.442       7.371       7.214       7.024       6.864       6.765       6.658    
        6.531       6.432       6.336       6.225       6.083       5.900       5.612       5.252       4.924       4.586    
        4.136       3.527       2.955       2.389       1.784       1.288      0.8013      0.3519      0.1056       0.000    
  16    10.00       9.976       9.939       9.891       9.819       9.724       9.647       9.593       9.534       9.463    
        9.392       9.286       9.146       9.035       8.937       8.832       8.768       8.585       8.244       7.967    
        7.759       7.499       7.399       7.341       7.224       7.029       6.873       6.786       6.732       6.647    
        6.543       6.457       6.379       6.261       6.087       5.861       5.516       5.188       4.925       4.560    
        4.046       3.391       2.734       2.109       1.595       1.105      0.6830      0.3342      0.1127       0.000    
  17    10.00       9.976       9.937       9.875       9.787       9.691       9.628       9.579       9.514       9.437    
        9.323       9.191       9.068       8.950       8.831       8.730       8.582       8.278       7.951       7.749    
        7.541       7.368       7.288       7.174       6.992       6.841       6.790       6.759       6.715       6.631    
        6.543       6.470       6.396       6.288       6.049       5.737       5.438       5.201       4.948       4.487    
        3.802       3.138       2.514       1.902       1.364      0.8941      0.5726      0.2990      0.1228       0.000    
  18    10.00       9.971       9.926       9.852       9.742       9.666       9.617       9.551       9.479       9.374    
        9.240       9.124       9.002       8.848       8.694       8.530       8.313       7.997       7.743       7.560    
        7.384       7.235       7.114       6.952       6.821       6.772       6.752       6.733       6.685       6.615    
        6.547       6.479       6.390       6.215       5.966       5.695       5.436       5.221       4.869       4.257    
        3.560       2.857       2.194       1.693       1.265      0.8382      0.4917      0.2473      0.1185       0.000    
  19    10.00       9.964       9.915       9.808       9.699       9.655       9.601       9.521       9.433       9.323    
        9.202       9.094       8.921       8.691       8.508       8.338       8.069       7.771       7.591       7.447    
        7.262       7.082       6.948       6.819       6.750       6.725       6.711       6.683       6.639       6.595    
        6.545       6.476       6.347       6.168       5.947       5.680       5.439       5.132       4.540       3.914    
        3.356       2.632       2.004       1.607       1.183      0.7562      0.4439      0.2517      0.1289       0.000    
  20    10.00       9.956       9.874       9.765       9.686       9.639       9.581       9.497       9.400       9.300    
        9.177       9.015       8.760       8.531       8.367       8.153       7.879       7.711       7.545       7.343    
        7.137       6.974       6.834       6.739       6.688       6.659       6.626       6.609       6.583       6.562    
        6.526       6.457       6.316       6.131       5.899       5.660       5.360       4.812       4.182       3.687    
        3.087       2.424       1.955       1.571       1.143      0.6707      0.3875      0.2619      0.1350       0.000    
  21    10.00       9.927       9.840       9.749       9.672       9.623       9.560       9.463       9.367       9.274    
        9.112       8.868       8.609       8.434       8.248       8.019       7.812       7.650       7.449       7.232    
        7.031       6.870       6.747       6.648       6.580       6.530       6.512       6.514       6.508       6.504    
        6.488       6.407       6.254       6.065       5.825       5.559       5.101       4.531       4.033       3.434    
        2.869       2.347       1.952       1.564      0.9621      0.5425      0.3921      0.2958      0.1418       0.000    
  22    10.00       9.908       9.804       9.723       9.663       9.604       9.517       9.428       9.344       9.217    
        9.010       8.736       8.528       8.369       8.159       7.922       7.719       7.544       7.356       7.149    
        6.948       6.778       6.615       6.467       6.380       6.360       6.376       6.389       6.417       6.427    
        6.413       6.319       6.182       5.980       5.726       5.461       4.987       4.431       3.783       3.207    
        2.799       2.383       1.907       1.259      0.7493      0.5404      0.4108      0.2734      0.1011       0.000    
  23    10.00       9.882       9.781       9.718       9.655       9.567       9.474       9.408       9.303       9.144    
        8.904       8.668       8.518       8.319       8.044       7.803       7.639       7.495       7.318       7.094    
        6.883       6.684       6.452       6.178       5.976       6.020       6.151       6.237       6.307       6.343    
        6.327       6.238       6.096       5.911       5.666       5.359       4.879       4.195       3.551       3.146    
        2.770       2.246       1.567       1.013      0.7368      0.5508      0.3939      0.2323      9.2445E-02   0.000    
  24    10.00       9.864       9.792       9.717       9.628       9.538       9.466       9.393       9.292       9.082    
        8.855       8.680       8.510       8.243       7.936       7.761       7.623       7.481       7.279       7.067    
        6.880       6.629       6.258       5.737       5.098       5.371       5.770       6.042       6.192       6.252    
        6.245       6.161       6.033       5.828       5.567       5.195       4.597       3.958       3.474       3.051    
        2.591       2.010       1.404      0.9816      0.7378      0.5364      0.3592      0.2516      0.1235       0.000    
  25    10.00       9.880       9.806       9.712       9.620       9.537       9.466       9.398       9.247       9.043    
        8.867       8.689       8.464       8.167       7.939       7.784       7.629       7.459       7.274       7.092    
        6.877       6.638       6.109       5.113       3.321       4.678       5.416       5.847       6.095       6.193    
        6.185       6.109       5.970       5.705       5.367       4.889       4.343       3.841       3.423       2.927    
        2.373       1.818       1.309      0.9725      0.7646      0.5572      0.3784      0.2635      0.1640       0.000    
  26    10.00       9.897       9.825       9.726       9.627       9.552       9.475       9.376       9.226       9.083    
        8.917       8.670       8.392       8.151       7.980       7.831       7.652       7.442       7.263       7.111    
        6.934       6.701       6.251       5.529       4.722       5.091       5.548       5.868       6.091       6.175    
        6.140       6.055       5.867       5.568       5.208       4.759       4.162       3.691       3.304       2.709    
        2.085       1.600       1.296       1.062      0.8244      0.6015      0.4124      0.2862      0.1672       0.000    
  27    10.00       9.918       9.830       9.742       9.656       9.566       9.481       9.380       9.255       9.122    
        8.909       8.628       8.384       8.184       8.042       7.870       7.637       7.419       7.282       7.159    
        7.023       6.812       6.477       6.063       5.649       5.645       5.827       6.029       6.167       6.173    
        6.109       6.012       5.803       5.485       5.073       4.481       3.935       3.555       2.979       2.361    
        1.880       1.570       1.341       1.136      0.9013      0.6565      0.4480      0.3150      0.1987       0.000    
  28    10.00       9.924       9.852       9.772       9.687       9.592       9.497       9.398       9.288       9.131    
        8.878       8.631       8.417       8.222       8.071       7.900       7.711       7.508       7.320       7.196    
        7.089       6.942       6.732       6.444       6.205       6.073       6.114       6.221       6.237       6.187    
        6.091       5.959       5.711       5.329       4.808       4.216       3.761       3.241       2.651       2.217    
        1.876       1.613       1.389       1.175      0.9470      0.7164      0.5082      0.3586      0.2049       0.000    
  29    10.00       9.930       9.859       9.796       9.713       9.627       9.533       9.431       9.309       9.095    
        8.858       8.646       8.440       8.275       8.102       7.921       7.752       7.591       7.417       7.260    
        7.147       7.035       6.901       6.737       6.516       6.407       6.384       6.366       6.319       6.196    
        6.050       5.829       5.556       5.079       4.483       3.989       3.546       3.015       2.548       2.233    
        1.957       1.669       1.415       1.210       1.004      0.7575      0.5369      0.3746      0.2077       0.000    
  30    10.00       9.939       9.880       9.825       9.750       9.665       9.580       9.462       9.295       9.099    
        8.857       8.625       8.455       8.288       8.121       7.960       7.824       7.680       7.513       7.347    
        7.213       7.121       7.011       6.902       6.779       6.656       6.590       6.486       6.365       6.188    
        5.943       5.610       5.270       4.804       4.359       3.909       3.443       2.951       2.602       2.317    
        1.990       1.701       1.481       1.247       1.002      0.7837      0.5722      0.3978      0.2235       0.000    
  31    10.00       9.951       9.903       9.850       9.794       9.724       9.626       9.477       9.284       9.076    
        8.841       8.632       8.477       8.312       8.157       8.006       7.875       7.761       7.593       7.429    
        7.309       7.211       7.123       7.022       6.922       6.807       6.691       6.567       6.382       6.122    
        5.754       5.377       5.057       4.705       4.293       3.824       3.357       2.960       2.715       2.444    
        2.081       1.764       1.513       1.276       1.049      0.8242      0.6062      0.4186      0.2167       0.000    
  32    10.00       9.958       9.923       9.876       9.822       9.755       9.649       9.475       9.298       9.100    
        8.856       8.662       8.514       8.342       8.172       8.048       7.936       7.802       7.664       7.508    
        7.380       7.276       7.178       7.064       6.964       6.880       6.750       6.572       6.314       5.974    
        5.592       5.252       4.947       4.625       4.227       3.810       3.446       3.109       2.829       2.517    
        2.182       1.869       1.605       1.334       1.086      0.8960      0.6682      0.4106      0.1833       0.000    
  33    10.00       9.964       9.936       9.896       9.841       9.768       9.628       9.455       9.313       9.132    
        8.907       8.721       8.542       8.342       8.191       8.091       7.993       7.855       7.707       7.560    
        7.421       7.306       7.176       7.065       6.988       6.904       6.715       6.456       6.188       5.885    
        5.521       5.235       4.927       4.546       4.182       3.818       3.524       3.258       2.939       2.596    
        2.307       2.012       1.722       1.442       1.182      0.9697      0.7146      0.4124      0.1792       0.000    
  34    10.00       9.970       9.949       9.914       9.841       9.732       9.602       9.482       9.332       9.152    
        8.956       8.749       8.542       8.344       8.224       8.144       8.036       7.899       7.726       7.578    
        7.442       7.292       7.158       7.060       6.978       6.842       6.614       6.378       6.116       5.769    
        5.456       5.236       4.931       4.568       4.217       3.887       3.611       3.347       3.020       2.711    
        2.454       2.171       1.854       1.575       1.311       1.068      0.7640      0.4638      0.2432       0.000    
  35    10.00       9.975       9.948       9.898       9.807       9.700       9.605       9.501       9.378       9.179    
        8.960       8.745       8.533       8.375       8.273       8.185       8.063       7.913       7.736       7.560    
        7.387       7.240       7.106       7.015       6.924       6.789       6.556       6.286       5.985       5.635    
        5.408       5.173       4.875       4.614       4.324       3.981       3.681       3.462       3.155       2.828    
        2.580       2.290       1.973       1.698       1.424       1.158      0.8756      0.5803      0.2871       0.000    
  36    10.00       9.969       9.925       9.870       9.785       9.685       9.605       9.513       9.378       9.181    
        8.936       8.705       8.555       8.440       8.336       8.218       8.070       7.909       7.707       7.447    
        7.261       7.148       7.039       6.962       6.876       6.706       6.446       6.159       5.798       5.500    
        5.317       5.130       4.881       4.633       4.393       4.089       3.792       3.561       3.288       2.932    
        2.660       2.337       2.021       1.811       1.545       1.249      0.9658      0.6572      0.3215       0.000    
  37    10.00       9.951       9.905       9.849       9.765       9.677       9.585       9.496       9.369       9.136    
        8.878       8.704       8.618       8.504       8.369       8.245       8.048       7.840       7.562       7.290    
        7.187       7.092       6.986       6.899       6.793       6.584       6.328       5.949       5.632       5.449    
        5.299       5.105       4.863       4.670       4.428       4.141       3.910       3.689       3.382       2.991    
        2.635       2.332       2.112       1.895       1.628       1.347       1.064      0.7248      0.3980       0.000    
  38    10.00       9.943       9.883       9.824       9.750       9.665       9.566       9.469       9.320       9.100    
        8.908       8.771       8.661       8.550       8.397       8.179       7.946       7.691       7.377       7.211    
        7.129       6.999       6.881       6.811       6.683       6.462       6.090       5.748       5.591       5.457    
        5.300       5.098       4.882       4.693       4.457       4.198       4.009       3.784       3.393       2.963    
        2.654       2.401       2.183       1.959       1.723       1.437       1.155      0.8382      0.4142       0.000    
  39    10.00       9.927       9.867       9.814       9.741       9.644       9.538       9.436       9.295       9.115    
        8.963       8.857       8.729       8.568       8.323       8.039       7.776       7.473       7.258       7.159    
        7.020       6.868       6.780       6.711       6.586       6.288       5.930       5.738       5.600       5.462    
        5.286       5.097       4.891       4.703       4.525       4.313       4.065       3.793       3.408       3.007    
        2.682       2.421       2.249       2.061       1.795       1.513       1.226      0.8725      0.4088       0.000    
  40    10.00       9.918       9.861       9.806       9.730       9.628       9.525       9.423       9.298       9.146    
        9.020       8.923       8.751       8.485       8.169       7.884       7.606       7.352       7.202       7.065    
        6.902       6.774       6.705       6.612       6.446       6.181       5.951       5.764       5.612       5.469    
        5.298       5.097       4.904       4.748       4.593       4.379       4.093       3.808       3.417       2.988    
        2.683       2.476       2.287       2.127       1.847       1.538       1.276      0.8750      0.4073       0.000    
  41    10.00       9.925       9.858       9.791       9.709       9.628       9.542       9.446       9.322       9.182    
        9.060       8.935       8.700       8.376       8.052       7.787       7.516       7.277       7.127       6.975    
        6.811       6.702       6.620       6.512       6.342       6.152       6.000       5.821       5.632       5.465    
        5.302       5.122       4.939       4.804       4.639       4.426       4.140       3.747       3.299       2.968    
        2.747       2.547       2.352       2.128       1.837       1.541       1.317      0.9322      0.4227       0.000    
  42    10.00       9.924       9.847       9.788       9.728       9.653       9.560       9.451       9.344       9.235    
        9.071       8.848       8.573       8.263       7.962       7.722       7.456       7.227       7.062       6.890    
        6.738       6.640       6.549       6.451       6.303       6.174       6.048       5.845       5.633       5.485    
        5.352       5.157       4.961       4.830       4.678       4.451       4.099       3.636       3.226       2.980    
        2.814       2.635       2.386       2.088       1.809       1.578       1.345      0.9833      0.4851       0.000    
  43    10.00       9.917       9.852       9.802       9.753       9.681       9.588       9.484       9.362       9.186    
        8.968       8.737       8.480       8.158       7.889       7.667       7.428       7.194       6.987       6.825    
        6.691       6.593       6.517       6.438       6.315       6.184       6.055       5.845       5.661       5.553    
        5.392       5.182       4.994       4.859       4.681       4.387       3.981       3.543       3.244       3.056    
        2.878       2.673       2.367       2.062       1.815       1.592       1.391      0.9972      0.4557       0.000    
  44    10.00       9.917       9.860       9.814       9.755       9.700       9.624       9.481       9.296       9.089    
        8.906       8.673       8.363       8.093       7.880       7.623       7.362       7.112       6.906       6.766    
        6.668       6.586       6.512       6.431       6.325       6.191       6.018       5.844       5.722       5.593    
        5.449       5.265       5.050       4.845       4.628       4.299       3.874       3.513       3.282       3.100    
        2.921       2.677       2.382       2.118       1.854       1.614       1.369      0.9003      0.4140       0.000    
  45    10.00       9.926       9.873       9.813       9.755       9.707       9.579       9.407       9.219       9.042    
        8.890       8.577       8.255       8.060       7.828       7.542       7.257       7.027       6.861       6.751    
        6.678       6.601       6.520       6.425       6.308       6.177       6.031       5.899       5.791       5.657    
        5.490       5.300       5.078       4.819       4.560       4.207       3.808       3.524       3.348       3.161    
        2.922       2.643       2.390       2.149       1.915       1.676       1.278      0.8000      0.4026       0.000    
  46    10.00       9.940       9.883       9.813       9.747       9.650       9.510       9.379       9.221       9.032    
        8.779       8.480       8.223       7.974       7.727       7.450       7.185       7.015       6.880       6.776    
        6.701       6.627       6.523       6.405       6.293       6.182       6.068       5.947       5.838       5.720    
        5.569       5.370       5.118       4.810       4.441       4.074       3.779       3.578       3.395       3.200    
        2.917       2.620       2.368       2.177       1.954       1.643       1.190      0.7641      0.3767       0.000    
  47    10.00       9.951       9.897       9.827       9.713       9.586       9.466       9.364       9.218       8.967    
        8.664       8.390       8.166       7.958       7.696       7.395       7.161       7.001       6.892       6.804    
        6.724       6.636       6.527       6.403       6.294       6.208       6.113       5.994       5.869       5.753    
        5.622       5.454       5.120       4.690       4.329       4.066       3.819       3.646       3.484       3.213    
        2.869       2.555       2.327       2.195       1.948       1.567       1.125      0.7370      0.3724       0.000    
  48    10.00       9.956       9.900       9.795       9.678       9.568       9.448       9.344       9.196       8.913    
        8.582       8.353       8.169       7.915       7.609       7.338       7.162       7.000       6.892       6.824    
        6.742       6.636       6.519       6.406       6.316       6.248       6.164       6.032       5.887       5.762    
        5.624       5.423       5.074       4.717       4.396       4.105       3.885       3.708       3.501       3.157    
        2.787       2.545       2.363       2.130       1.806       1.468       1.089      0.7423      0.3930       0.000    
  49    10.00       9.953       9.869       9.767       9.679       9.562       9.444       9.334       9.148       8.848    
        8.552       8.333       8.103       7.846       7.615       7.363       7.119       6.968       6.902       6.838    
        6.760       6.638       6.502       6.404       6.336       6.285       6.189       6.037       5.884       5.771    
        5.622       5.357       5.049       4.797       4.527       4.207       3.922       3.703       3.459       3.091    
        2.793       2.581       2.330       1.994       1.707       1.402       1.071      0.7545      0.3842       0.000    
  50    10.00       9.941       9.848       9.755       9.684       9.574       9.444       9.304       9.103       8.866    
        8.566       8.272       8.033       7.829       7.643       7.360       7.082       6.968       6.910       6.848    
        6.773       6.636       6.491       6.402       6.348       6.301       6.193       6.029       5.884       5.768    
        5.606       5.327       5.091       4.874       4.582       4.263       3.974       3.684       3.333       3.007    
        2.850       2.626       2.260       1.923       1.682       1.392       1.104      0.7369      0.3027       0.000    

 HEAD WILL BE SAVED ON UNIT   51 AT END OF TIME STEP  17, STRESS PERIOD    2

 DRAWDOWN WILL BE SAVED ON UNIT   52 AT END OF TIME STEP  17, STRESS PERIOD    2
1
  VOLUMETRIC BUDGET FOR ENTIRE MODEL AT END OF TIME STEP 17 IN STRESS PERIOD   2
  ------------------------------------------------------------------------------

     CUMULATIVE VOLUMES      L**3       RATES FOR THIS TIME STEP      L**3/T
     ------------------                 ------------------------

           IN:                                      IN:
           ---                                      ---
             STORAGE =        8496.0576               STORAGE =         498.8799
       CONSTANT HEAD =        9722.0029         CONSTANT HEAD =         541.0078
               WELLS =           0.0000                 WELLS =           0.0000

            TOTAL IN =       18218.0605              TOTAL IN =        1039.8877

          OUT:                                     OUT:
          ----                                     ----
             STORAGE =       9.3745E-03               STORAGE =           0.0000
       CONSTANT HEAD =        9718.0498         CONSTANT HEAD =         539.8879
               WELLS =        8500.0000                 WELLS =         500.0000

           TOTAL OUT =       18218.0586             TOTAL OUT =        1039.8879

            IN - OUT =       1.9531E-03              IN - OUT =      -2.4414E-04

 PERCENT DISCREPANCY =           0.00     PERCENT DISCREPANCY =           0.00






          TIME SUMMARY AT END OF TIME STEP  17 IN STRESS PERIOD    2
                    SECONDS     MINUTES      HOURS       DAYS        YEARS
                    -----------------------------------------------------------
   TIME STEP LENGTH  86400.      1440.0      24.000      1.0000     2.73785E-03
 STRESS PERIOD TIME 1.46880E+06  24480.      408.00      17.000     4.65435E-02
         TOTAL TIME 1.55520E+06  25920.      432.00      18.000     4.92813E-02
1
 
 SOLVING FOR HEAD 

 OUTPUT CONTROL FOR STRESS PERIOD    2   TIME STEP  18
    SAVE HEAD FOR ALL LAYERS
    SAVE DRAWDOWN FOR ALL LAYERS
    SAVE BUDGET
    PRINT HEAD FOR ALL LAYERS
    PRINT BUDGET
 UBDSV1 SAVING "         STORAGE" ON UNIT  53 AT TIME STEP 18, STRESS PERIOD   2
 UBDSV2 SAVING "   CONSTANT HEAD" ON UNIT  53 AT TIME STEP 18, STRESS PERIOD   2
 UBDSV1 SAVING "FLOW RIGHT FACE " ON UNIT  53 AT TIME STEP 18, STRESS PERIOD   2
 UBDSV1 SAVING "FLOW FRONT FACE " ON UNIT  53 AT TIME STEP 18, STRESS PERIOD   2
1
              HEAD IN LAYER   1 AT END OF TIME STEP  18 IN STRESS PERIOD    2
  ---------------------------------------------------------------------------

            1           2           3           4           5           6           7           8           9          10
           11          12          13          14          15          16          17          18          19          20
           21          22          23          24          25          26          27          28          29          30
           31          32          33          34          35          36          37          38          39          40
           41          42          43          44          45          46          47          48          49          50
 ........................................................................................................................
   1    10.00       9.960       9.904       9.850       9.804       9.748       9.693       9.636       9.559       9.496    
        9.460       9.422       9.381       9.339       9.273       9.200       9.120       9.058       9.030       8.998    
        8.959       8.924       8.889       8.843       8.779       8.668       8.533       8.402       8.251       8.100    
        7.887       7.548       7.150       6.731       6.263       5.830       5.464       5.124       4.659       4.154    
        3.725       3.299       2.713       2.157       1.767       1.377       1.050      0.8388      0.5562       0.000    
   2    10.00       9.959       9.910       9.855       9.806       9.755       9.694       9.619       9.545       9.497    
        9.463       9.430       9.398       9.347       9.270       9.195       9.122       9.061       9.031       8.995    
        8.955       8.928       8.900       8.852       8.779       8.673       8.537       8.400       8.258       8.108    
        7.877       7.528       7.110       6.638       6.165       5.748       5.420       5.086       4.616       4.143    
        3.709       3.197       2.667       2.226       1.839       1.475       1.101      0.7966      0.4253       0.000    
   3    10.00       9.955       9.908       9.858       9.809       9.749       9.674       9.603       9.556       9.511    
        9.473       9.444       9.412       9.364       9.288       9.194       9.117       9.067       9.029       8.993    
        8.959       8.931       8.903       8.843       8.765       8.658       8.530       8.428       8.277       8.098    
        7.801       7.398       6.956       6.499       6.062       5.673       5.379       5.036       4.528       4.068    
        3.707       3.239       2.749       2.324       1.922       1.554       1.112      0.6836      0.3006       0.000    
   4    10.00       9.959       9.911       9.856       9.795       9.727       9.655       9.602       9.562       9.521    
        9.487       9.463       9.428       9.375       9.306       9.204       9.118       9.072       9.030       8.996    
        8.959       8.926       8.890       8.827       8.749       8.646       8.522       8.407       8.291       8.068    
        7.686       7.197       6.727       6.378       6.049       5.669       5.291       4.858       4.429       4.091    
        3.768       3.352       2.860       2.440       2.016       1.570       1.061      0.6071      0.2827       0.000    
   5    10.00       9.956       9.905       9.843       9.780       9.717       9.654       9.609       9.567       9.532    
        9.502       9.476       9.436       9.375       9.294       9.201       9.129       9.077       9.036       8.990    
        8.947       8.913       8.868       8.803       8.730       8.614       8.491       8.392       8.275       7.995    
        7.501       6.969       6.582       6.316       6.015       5.628       5.198       4.771       4.463       4.175    
        3.881       3.449       2.934       2.566       2.135       1.551      0.9653      0.5604      0.2818       0.000    
   6    10.00       9.946       9.885       9.837       9.778       9.712       9.659       9.618       9.575       9.543    
        9.516       9.483       9.432       9.362       9.293       9.216       9.137       9.075       9.022       8.970    
        8.932       8.897       8.856       8.787       8.680       8.569       8.477       8.370       8.178       7.780    
        7.238       6.762       6.467       6.263       6.018       5.594       5.126       4.780       4.553       4.298    
        4.009       3.616       3.102       2.643       2.109       1.483      0.8654      0.4928      0.2753       0.000    
   7    10.00       9.930       9.874       9.826       9.770       9.722       9.672       9.630       9.593       9.558    
        9.523       9.478       9.415       9.348       9.285       9.222       9.137       9.054       8.998       8.955    
        8.918       8.879       8.837       8.749       8.639       8.548       8.448       8.283       7.968       7.471    
        6.957       6.586       6.399       6.237       5.929       5.515       5.202       4.894       4.642       4.462    
        4.166       3.758       3.206       2.611       1.953       1.236      0.7252      0.5003      0.2533       0.000    
   8    10.00       9.926       9.874       9.823       9.772       9.730       9.687       9.647       9.612       9.578    
        9.527       9.462       9.397       9.338       9.279       9.203       9.103       9.024       8.982       8.941    
        8.898       8.865       8.799       8.707       8.610       8.504       8.321       8.063       7.643       7.216    
        6.828       6.527       6.380       6.183       5.840       5.518       5.255       5.027       4.819       4.603    
        4.294       3.788       3.150       2.473       1.723       1.115      0.7674      0.4907      0.2260       0.000    
   9    10.00       9.929       9.871       9.821       9.785       9.749       9.707       9.668       9.628       9.590    
        9.527       9.447       9.380       9.320       9.252       9.167       9.077       9.008       8.963       8.920    
        8.881       8.830       8.741       8.657       8.561       8.419       8.160       7.777       7.366       7.057    
        6.748       6.517       6.351       6.091       5.773       5.519       5.329       5.149       4.968       4.731    
        4.346       3.816       3.137       2.380       1.690       1.154      0.7827      0.4866      0.2412       0.000    
  10    10.00       9.928       9.869       9.828       9.796       9.762       9.725       9.690       9.645       9.585    
        9.510       9.430       9.365       9.300       9.229       9.133       9.042       8.987       8.946       8.903    
        8.863       8.782       8.687       8.597       8.469       8.267       7.895       7.478       7.145       6.910    
        6.718       6.521       6.307       6.039       5.760       5.559       5.409       5.257       5.053       4.777    
        4.362       3.780       3.054       2.377       1.830       1.322      0.8379      0.5165      0.2721       0.000    
  11    10.00       9.919       9.873       9.839       9.807       9.777       9.745       9.699       9.635       9.569    
        9.494       9.417       9.355       9.271       9.175       9.091       9.026       8.973       8.933       8.885    
        8.817       8.716       8.586       8.456       8.244       7.950       7.619       7.328       7.049       6.869    
        6.706       6.459       6.211       6.011       5.817       5.658       5.504       5.307       5.065       4.740    
        4.350       3.835       3.096       2.477       1.991       1.502      0.9647      0.5113      0.2052       0.000    
  12    10.00       9.926       9.881       9.845       9.818       9.787       9.752       9.691       9.616       9.550    
        9.479       9.403       9.322       9.222       9.143       9.072       9.004       8.959       8.910       8.841    
        8.716       8.550       8.371       8.183       7.924       7.695       7.504       7.214       6.973       6.818    
        6.640       6.416       6.207       6.031       5.895       5.750       5.563       5.338       5.046       4.704    
        4.318       3.813       3.134       2.579       2.137       1.609       1.014      0.4831      0.1607       0.000    
  13    10.00       9.942       9.901       9.862       9.827       9.792       9.741       9.667       9.591       9.525    
        9.452       9.378       9.294       9.193       9.103       9.032       8.985       8.929       8.863       8.716    
        8.495       8.294       8.099       7.865       7.659       7.546       7.319       7.055       6.918       6.779    
        6.583       6.379       6.221       6.085       5.966       5.831       5.613       5.329       5.041       4.684    
        4.298       3.782       3.081       2.561       2.152       1.573      0.9440      0.4368      0.1262       0.000    
  14    10.00       9.958       9.920       9.880       9.839       9.786       9.712       9.635       9.568       9.494    
        9.423       9.354       9.257       9.147       9.067       9.009       8.937       8.860       8.714       8.461    
        8.225       8.040       7.785       7.588       7.486       7.359       7.128       6.965       6.838       6.704    
        6.528       6.383       6.276       6.151       6.023       5.878       5.632       5.317       5.006       4.642    
        4.226       3.603       2.944       2.524       2.023       1.468      0.9315      0.3991      0.1027       0.000    
  15    10.00       9.967       9.929       9.888       9.842       9.763       9.674       9.607       9.540       9.470    
        9.416       9.338       9.213       9.095       9.023       8.931       8.838       8.742       8.503       8.204    
        8.004       7.745       7.503       7.420       7.350       7.192       7.002       6.842       6.744       6.639    
        6.514       6.417       6.323       6.214       6.074       5.892       5.607       5.249       4.922       4.585    
        4.135       3.527       2.954       2.389       1.784       1.288      0.8013      0.3519      0.1056       0.000    
  16    10.00       9.976       9.939       9.891       9.819       9.723       9.647       9.592       9.533       9.462    
        9.390       9.283       9.143       9.031       8.932       8.826       8.760       8.575       8.229       7.948    
        7.738       7.476       7.375       7.317       7.200       7.004       6.847       6.762       6.709       6.626    
        6.525       6.441       6.364       6.248       6.077       5.853       5.511       5.184       4.923       4.558    
        4.045       3.391       2.734       2.109       1.595       1.105      0.6830      0.3342      0.1127       0.000    
  17    10.00       9.976       9.937       9.875       9.787       9.691       9.627       9.578       9.513       9.436    
        9.321       9.188       9.064       8.944       8.824       8.722       8.571       8.263       7.930       7.726    
        7.516       7.342       7.261       7.147       6.964       6.813       6.762       6.733       6.691       6.609    
        6.524       6.452       6.380       6.274       6.038       5.729       5.434       5.197       4.946       4.486    
        3.802       3.138       2.514       1.902       1.364      0.8941      0.5726      0.2990      0.1228       0.000    
  18    10.00       9.971       9.926       9.852       9.742       9.666       9.616       9.551       9.478       9.373    
        9.237       9.121       8.996       8.840       8.684       8.518       8.297       7.977       7.719       7.534    
        7.356       7.206       7.084       6.922       6.791       6.742       6.723       6.705       6.659       6.591    
        6.526       6.460       6.373       6.201       5.956       5.688       5.431       5.218       4.866       4.256    
        3.560       2.857       2.194       1.693       1.265      0.8382      0.4917      0.2473      0.1185       0.000    
  19    10.00       9.964       9.915       9.808       9.699       9.655       9.600       9.521       9.432       9.321    
        9.199       9.090       8.915       8.681       8.495       8.322       8.049       7.746       7.564       7.419    
        7.232       7.051       6.917       6.788       6.719       6.695       6.681       6.654       6.611       6.569    
        6.522       6.455       6.330       6.154       5.937       5.672       5.434       5.129       4.539       3.913    
        3.356       2.632       2.004       1.607       1.183      0.7562      0.4439      0.2517      0.1289       0.000    
  20    10.00       9.956       9.874       9.765       9.686       9.639       9.580       9.496       9.398       9.298    
        9.174       9.010       8.752       8.519       8.351       8.134       7.856       7.685       7.517       7.313    
        7.106       6.942       6.801       6.707       6.656       6.627       6.594       6.578       6.554       6.534    
        6.501       6.434       6.298       6.118       5.889       5.653       5.356       4.810       4.181       3.687    
        3.087       2.424       1.955       1.571       1.143      0.6707      0.3875      0.2619      0.1350       0.000    
  21    10.00       9.927       9.839       9.749       9.672       9.622       9.560       9.462       9.366       9.272    
        9.108       8.861       8.598       8.419       8.230       7.998       7.787       7.623       7.420       7.201    
        6.999       6.837       6.713       6.614       6.547       6.497       6.479       6.481       6.476       6.474    
        6.460       6.383       6.235       6.051       5.815       5.553       5.097       4.530       4.032       3.434    
        2.869       2.347       1.952       1.564      0.9621      0.5425      0.3921      0.2958      0.1418       0.000    
  22    10.00       9.908       9.804       9.723       9.663       9.603       9.516       9.427       9.342       9.214    
        9.006       8.727       8.516       8.354       8.141       7.899       7.693       7.516       7.326       7.117    
        6.915       6.744       6.581       6.432       6.346       6.326       6.341       6.355       6.383       6.395    
        6.384       6.295       6.162       5.966       5.717       5.454       4.984       4.429       3.782       3.207    
        2.799       2.383       1.907       1.259      0.7493      0.5404      0.4108      0.2734      0.1011       0.000    
  23    10.00       9.881       9.781       9.718       9.655       9.567       9.473       9.407       9.301       9.141    
        8.897       8.658       8.505       8.303       8.023       7.778       7.612       7.466       7.288       7.062    
        6.849       6.649       6.417       6.142       5.939       5.983       6.115       6.201       6.272       6.310    
        6.298       6.213       6.077       5.896       5.656       5.353       4.876       4.194       3.551       3.146    
        2.770       2.246       1.567       1.013      0.7368      0.5508      0.3939      0.2323      9.2445E-02   0.000    
  24    10.00       9.864       9.792       9.717       9.627       9.537       9.465       9.391       9.290       9.078    
        8.848       8.670       8.497       8.226       7.914       7.736       7.596       7.452       7.248       7.035    
        6.846       6.594       6.221       5.700       5.059       5.332       5.731       6.005       6.156       6.219    
        6.215       6.137       6.013       5.814       5.557       5.189       4.595       3.957       3.473       3.051    
        2.591       2.010       1.404      0.9816      0.7378      0.5364      0.3592      0.2516      0.1235       0.000    
  25    10.00       9.880       9.806       9.712       9.619       9.536       9.465       9.397       9.244       9.038    
        8.860       8.679       8.451       8.149       7.917       7.760       7.602       7.430       7.243       7.060    
        6.844       6.603       6.073       5.074       3.279       4.637       5.375       5.808       6.058       6.160    
        6.156       6.085       5.951       5.692       5.358       4.885       4.340       3.840       3.423       2.927    
        2.373       1.818       1.309      0.9725      0.7646      0.5572      0.3784      0.2635      0.1640       0.000    
  26    10.00       9.897       9.825       9.726       9.626       9.551       9.474       9.374       9.223       9.078    
        8.910       8.660       8.378       8.133       7.959       7.807       7.626       7.413       7.232       7.079    
        6.901       6.666       6.214       5.490       4.681       5.049       5.505       5.827       6.053       6.143    
        6.113       6.033       5.850       5.556       5.201       4.755       4.160       3.690       3.304       2.709    
        2.085       1.600       1.296       1.062      0.8244      0.6015      0.4124      0.2862      0.1672       0.000    
  27    10.00       9.918       9.830       9.741       9.655       9.565       9.479       9.378       9.252       9.118    
        8.903       8.618       8.370       8.167       8.022       7.848       7.611       7.391       7.252       7.128    
        6.990       6.778       6.442       6.025       5.608       5.603       5.785       5.988       6.131       6.143    
        6.084       5.991       5.787       5.475       5.067       4.478       3.933       3.554       2.979       2.361    
        1.880       1.570       1.341       1.136      0.9013      0.6565      0.4480      0.3150      0.1987       0.000    
  28    10.00       9.924       9.852       9.771       9.687       9.591       9.496       9.396       9.285       9.127    
        8.872       8.622       8.404       8.206       8.053       7.879       7.688       7.482       7.291       7.166    
        7.058       6.909       6.698       6.408       6.166       6.032       6.074       6.184       6.204       6.159    
        6.068       5.940       5.698       5.321       4.804       4.214       3.760       3.241       2.651       2.217    
        1.876       1.613       1.389       1.175      0.9470      0.7164      0.5082      0.3586      0.2049       0.000    
  29    10.00       9.930       9.859       9.795       9.712       9.626       9.532       9.429       9.306       9.091    
        8.852       8.637       8.429       8.261       8.085       7.901       7.729       7.566       7.390       7.230    
        7.116       7.004       6.868       6.702       6.479       6.369       6.348       6.332       6.289       6.172    
        6.030       5.815       5.546       5.074       4.481       3.988       3.546       3.015       2.548       2.233    
        1.957       1.669       1.415       1.210       1.004      0.7575      0.5369      0.3746      0.2077       0.000    
  30    10.00       9.939       9.880       9.824       9.750       9.664       9.579       9.460       9.293       9.095    
        8.851       8.616       8.444       8.274       8.105       7.941       7.804       7.658       7.488       7.320    
        7.184       7.091       6.979       6.870       6.746       6.625       6.560       6.458       6.341       6.169    
        5.928       5.601       5.264       4.801       4.358       3.909       3.442       2.951       2.602       2.317    
        1.990       1.701       1.481       1.247       1.002      0.7837      0.5722      0.3978      0.2235       0.000    
  31    10.00       9.951       9.903       9.849       9.793       9.723       9.625       9.475       9.282       9.073    
        8.835       8.624       8.467       8.300       8.142       7.990       7.856       7.741       7.570       7.404    
        7.283       7.184       7.095       6.994       6.897       6.782       6.667       6.544       6.363       6.107    
        5.745       5.372       5.054       4.703       4.292       3.824       3.357       2.960       2.715       2.444    
        2.081       1.764       1.513       1.276       1.049      0.8242      0.6062      0.4186      0.2167       0.000    
  32    10.00       9.957       9.923       9.876       9.822       9.755       9.649       9.474       9.296       9.096    
        8.851       8.655       8.505       8.331       8.159       8.033       7.920       7.784       7.645       7.486    
        7.356       7.252       7.154       7.042       6.943       6.860       6.730       6.555       6.301       5.966    
        5.587       5.249       4.945       4.624       4.226       3.809       3.446       3.109       2.829       2.517    
        2.182       1.869       1.605       1.334       1.086      0.8960      0.6682      0.4106      0.1833       0.000    
  33    10.00       9.964       9.936       9.896       9.841       9.768       9.627       9.454       9.311       9.129    
        8.903       8.715       8.534       8.332       8.179       8.078       7.979       7.840       7.689       7.542    
        7.401       7.285       7.156       7.046       6.970       6.886       6.700       6.444       6.180       5.879    
        5.518       5.233       4.926       4.546       4.182       3.817       3.524       3.258       2.939       2.596    
        2.307       2.012       1.722       1.442       1.182      0.9697      0.7146      0.4124      0.1792       0.000    
  34    10.00       9.970       9.949       9.914       9.841       9.732       9.601       9.481       9.331       9.150    
        8.953       8.744       8.535       8.336       8.215       8.133       8.024       7.886       7.711       7.563    
        7.426       7.276       7.143       7.045       6.963       6.829       6.604       6.370       6.110       5.766    
        5.454       5.234       4.930       4.568       4.217       3.886       3.611       3.347       3.020       2.711    
        2.454       2.171       1.854       1.575       1.311       1.068      0.7640      0.4638      0.2432       0.000    
  35    10.00       9.975       9.948       9.898       9.807       9.699       9.605       9.500       9.377       9.177    
        8.957       8.741       8.527       8.368       8.264       8.176       8.053       7.902       7.724       7.547    
        7.374       7.228       7.094       7.003       6.914       6.779       6.549       6.281       5.982       5.633    
        5.407       5.172       4.875       4.613       4.324       3.981       3.681       3.462       3.155       2.828    
        2.580       2.290       1.973       1.698       1.424       1.158      0.8756      0.5803      0.2871       0.000    
  36    10.00       9.969       9.925       9.870       9.785       9.684       9.605       9.512       9.377       9.179    
        8.934       8.701       8.551       8.434       8.330       8.211       8.062       7.900       7.698       7.438    
        7.252       7.140       7.031       6.954       6.868       6.699       6.441       6.155       5.796       5.499    
        5.316       5.129       4.880       4.633       4.393       4.089       3.792       3.561       3.288       2.932    
        2.660       2.337       2.021       1.811       1.545       1.249      0.9658      0.6572      0.3215       0.000    
  37    10.00       9.951       9.905       9.849       9.764       9.676       9.585       9.495       9.368       9.135    
        8.876       8.701       8.614       8.499       8.364       8.239       8.042       7.834       7.556       7.284    
        7.180       7.086       6.980       6.893       6.787       6.579       6.325       5.948       5.631       5.449    
        5.298       5.105       4.863       4.670       4.428       4.141       3.910       3.689       3.382       2.991    
        2.635       2.332       2.112       1.895       1.628       1.347       1.064      0.7248      0.3980       0.000    
  38    10.00       9.943       9.883       9.824       9.750       9.665       9.566       9.468       9.320       9.099    
        8.906       8.769       8.657       8.547       8.393       8.174       7.942       7.687       7.373       7.206    
        7.124       6.995       6.877       6.807       6.680       6.459       6.089       5.747       5.591       5.456    
        5.300       5.098       4.882       4.693       4.457       4.198       4.009       3.784       3.393       2.963    
        2.654       2.401       2.183       1.959       1.723       1.437       1.155      0.8382      0.4142       0.000    
  39    10.00       9.927       9.867       9.813       9.741       9.643       9.538       9.435       9.295       9.114    
        8.962       8.855       8.726       8.566       8.320       8.036       7.774       7.470       7.255       7.156    
        7.017       6.865       6.777       6.709       6.583       6.287       5.930       5.738       5.600       5.462    
        5.285       5.097       4.891       4.703       4.525       4.313       4.065       3.793       3.408       3.007    
        2.682       2.421       2.249       2.061       1.795       1.513       1.226      0.8725      0.4088       0.000    
  40    10.00       9.918       9.861       9.806       9.730       9.628       9.525       9.423       9.298       9.146    
        9.019       8.922       8.750       8.483       8.168       7.883       7.604       7.350       7.200       7.063    
        6.900       6.772       6.703       6.611       6.444       6.181       5.950       5.764       5.612       5.469    
        5.297       5.097       4.904       4.748       4.593       4.379       4.093       3.808       3.417       2.988    
        2.683       2.476       2.287       2.127       1.847       1.538       1.276      0.8750      0.4073       0.000    
  41    10.00       9.925       9.858       9.791       9.709       9.628       9.541       9.446       9.321       9.182    
        9.059       8.934       8.699       8.375       8.051       7.786       7.515       7.276       7.126       6.974    
        6.810       6.700       6.619       6.511       6.342       6.151       5.999       5.821       5.632       5.465    
        5.302       5.122       4.939       4.804       4.639       4.426       4.140       3.747       3.299       2.968    
        2.747       2.547       2.352       2.128       1.837       1.541       1.317      0.9322      0.4227       0.000    
  42    10.00       9.924       9.847       9.788       9.728       9.653       9.560       9.451       9.343       9.235    
        9.070       8.847       8.573       8.263       7.961       7.721       7.455       7.226       7.061       6.889    
        6.737       6.640       6.548       6.451       6.303       6.174       6.047       5.845       5.633       5.484    
        5.352       5.157       4.961       4.830       4.678       4.451       4.099       3.636       3.226       2.980    
        2.814       2.635       2.386       2.088       1.809       1.578       1.345      0.9833      0.4851       0.000    
  43    10.00       9.917       9.852       9.802       9.753       9.681       9.588       9.484       9.361       9.186    
        8.967       8.736       8.480       8.158       7.889       7.666       7.427       7.194       6.986       6.825    
        6.690       6.592       6.517       6.438       6.315       6.184       6.055       5.845       5.661       5.553    
        5.392       5.182       4.994       4.859       4.681       4.387       3.981       3.543       3.244       3.056    
        2.878       2.673       2.367       2.062       1.815       1.592       1.391      0.9972      0.4557       0.000    
  44    10.00       9.917       9.860       9.814       9.755       9.700       9.623       9.481       9.296       9.089    
        8.905       8.673       8.362       8.093       7.880       7.623       7.361       7.112       6.906       6.765    
        6.668       6.586       6.511       6.431       6.325       6.191       6.018       5.844       5.722       5.593    
        5.448       5.265       5.050       4.845       4.628       4.299       3.874       3.513       3.282       3.100    
        2.921       2.677       2.382       2.118       1.854       1.614       1.369      0.9003      0.4140       0.000    
  45    10.00       9.926       9.873       9.813       9.755       9.707       9.579       9.407       9.219       9.042    
        8.890       8.577       8.255       8.060       7.828       7.542       7.257       7.026       6.861       6.751    
        6.677       6.601       6.520       6.425       6.308       6.177       6.031       5.899       5.791       5.657    
        5.490       5.300       5.078       4.819       4.560       4.207       3.808       3.524       3.348       3.161    
        2.922       2.643       2.390       2.149       1.915       1.676       1.278      0.8000      0.4026       0.000    
  46    10.00       9.940       9.883       9.813       9.746       9.650       9.510       9.379       9.221       9.032    
        8.779       8.480       8.223       7.974       7.727       7.450       7.185       7.015       6.880       6.775    
        6.701       6.626       6.523       6.405       6.292       6.182       6.068       5.947       5.838       5.720    
        5.569       5.369       5.118       4.810       4.441       4.074       3.779       3.578       3.395       3.200    
        2.917       2.620       2.368       2.177       1.954       1.643       1.190      0.7641      0.3767       0.000    
  47    10.00       9.951       9.897       9.826       9.713       9.586       9.466       9.364       9.218       8.967    
        8.664       8.390       8.166       7.958       7.696       7.395       7.161       7.001       6.892       6.804    
        6.724       6.635       6.527       6.403       6.294       6.208       6.113       5.994       5.869       5.753    
        5.622       5.454       5.120       4.690       4.329       4.066       3.819       3.646       3.484       3.213    
        2.869       2.555       2.327       2.195       1.948       1.567       1.125      0.7370      0.3724       0.000    
  48    10.00       9.956       9.900       9.795       9.678       9.568       9.448       9.344       9.196       8.913    
        8.582       8.353       8.169       7.915       7.609       7.338       7.162       7.000       6.892       6.824    
        6.741       6.636       6.518       6.405       6.316       6.247       6.163       6.032       5.887       5.762    
        5.624       5.423       5.074       4.717       4.396       4.105       3.885       3.708       3.501       3.157    
        2.787       2.545       2.363       2.130       1.806       1.468       1.089      0.7423      0.3930       0.000    
  49    10.00       9.953       9.869       9.767       9.679       9.561       9.444       9.334       9.148       8.848    
        8.552       8.333       8.103       7.846       7.615       7.363       7.119       6.968       6.902       6.838    
        6.760       6.638       6.502       6.404       6.336       6.285       6.189       6.036       5.884       5.771    
        5.622       5.357       5.049       4.797       4.527       4.207       3.922       3.703       3.459       3.091    
        2.793       2.581       2.330       1.994       1.707       1.402       1.071      0.7545      0.3842       0.000    
  50    10.00       9.941       9.848       9.755       9.684       9.574       9.444       9.304       9.103       8.866    
        8.566       8.272       8.033       7.829       7.643       7.360       7.082       6.968       6.910       6.848    
        6.773       6.636       6.491       6.402       6.348       6.301       6.193       6.029       5.884       5.768    
        5.606       5.327       5.091       4.874       4.582       4.263       3.974       3.684       3.333       3.007    
        2.850       2.626       2.260       1.923       1.682       1.392       1.104      0.7369      0.3027       0.000    

 HEAD WILL BE SAVED ON UNIT   51 AT END OF TIME STEP  18, STRESS PERIOD    2

 DRAWDOWN WILL BE SAVED ON UNIT   52 AT END OF TIME STEP  18, STRESS PERIOD    2
1
  VOLUMETRIC BUDGET FOR ENTIRE MODEL AT END OF TIME STEP 18 IN STRESS PERIOD   2
  ------------------------------------------------------------------------------

     CUMULATIVE VOLUMES      L**3       RATES FOR THIS TIME STEP      L**3/T
     ------------------                 ------------------------

           IN:                                      IN:
           ---                                      ---
             STORAGE =        8994.6221               STORAGE =         498.5644
       CONSTANT HEAD =       10263.3242         CONSTANT HEAD =         541.3215
               WELLS =           0.0000                 WELLS =           0.0000

            TOTAL IN =       19257.9453              TOTAL IN =        1039.8859

          OUT:                                     OUT:
          ----                                     ----
             STORAGE =       9.3745E-03               STORAGE =           0.0000
       CONSTANT HEAD =       10257.9355         CONSTANT HEAD =         539.8860
               WELLS =        9000.0000                 WELLS =         500.0000

           TOTAL OUT =       19257.9453             TOTAL OUT =        1039.8860

            IN - OUT =           0.0000              IN - OUT =      -1.2207E-04

 PERCENT DISCREPANCY =           0.00     PERCENT DISCREPANCY =           0.00






          TIME SUMMARY AT END OF TIME STEP  18 IN STRESS PERIOD    2
                    SECONDS     MINUTES      HOURS       DAYS        YEARS
                    -----------------------------------------------------------
   TIME STEP LENGTH  86400.      1440.0      24.000      1.0000     2.73785E-03
 STRESS PERIOD TIME 1.55520E+06  25920.      432.00      18.000     4.92813E-02
         TOTAL TIME 1.64160E+06  27360.      456.00      19.000     5.20192E-02
1
 
 SOLVING FOR HEAD 

 OUTPUT CONTROL FOR STRESS PERIOD    2   TIME STEP  19
    SAVE HEAD FOR ALL LAYERS
    SAVE DRAWDOWN FOR ALL LAYERS
    SAVE BUDGET
    PRINT HEAD FOR ALL LAYERS
    PRINT BUDGET
 UBDSV1 SAVING "         STORAGE" ON UNIT  53 AT TIME STEP 19, STRESS PERIOD   2
 UBDSV2 SAVING "   CONSTANT HEAD" ON UNIT  53 AT TIME STEP 19, STRESS PERIOD   2
 UBDSV1 SAVING "FLOW RIGHT FACE " ON UNIT  53 AT TIME STEP 19, STRESS PERIOD   2
 UBDSV1 SAVING "FLOW FRONT FACE " ON UNIT  53 AT TIME STEP 19, STRESS PERIOD   2
1
              HEAD IN LAYER   1 AT END OF TIME STEP  19 IN STRESS PERIOD    2
  ---------------------------------------------------------------------------

            1           2           3           4           5           6           7           8           9          10
           11          12          13          14          15          16          17          18          19          20
           21          22          23          24          25          26          27          28          29          30
           31          32          33          34          35          36          37          38          39          40
           41          42          43          44          45          46          47          48          49          50
 ........................................................................................................................
   1    10.00       9.960       9.904       9.849       9.804       9.748       9.693       9.636       9.559       9.496    
        9.459       9.422       9.380       9.339       9.272       9.199       9.120       9.057       9.029       8.997    
        8.958       8.923       8.888       8.842       8.778       8.667       8.532       8.401       8.250       8.100    
        7.886       7.548       7.150       6.731       6.263       5.830       5.464       5.124       4.659       4.154    
        3.725       3.299       2.713       2.157       1.767       1.377       1.050      0.8388      0.5562       0.000    
   2    10.00       9.959       9.910       9.855       9.806       9.754       9.694       9.618       9.545       9.496    
        9.463       9.429       9.398       9.346       9.269       9.194       9.121       9.060       9.030       8.994    
        8.954       8.927       8.899       8.851       8.778       8.672       8.536       8.400       8.258       8.107    
        7.876       7.528       7.110       6.637       6.165       5.748       5.420       5.086       4.615       4.143    
        3.709       3.197       2.667       2.226       1.839       1.475       1.101      0.7966      0.4253       0.000    
   3    10.00       9.955       9.908       9.858       9.808       9.749       9.674       9.602       9.555       9.511    
        9.473       9.443       9.412       9.363       9.287       9.193       9.117       9.066       9.028       8.992    
        8.958       8.930       8.902       8.842       8.764       8.657       8.530       8.427       8.277       8.098    
        7.801       7.397       6.955       6.499       6.062       5.672       5.379       5.036       4.528       4.068    
        3.706       3.238       2.749       2.324       1.922       1.554       1.112      0.6836      0.3006       0.000    
   4    10.00       9.959       9.911       9.856       9.795       9.727       9.655       9.602       9.562       9.520    
        9.487       9.462       9.427       9.375       9.305       9.203       9.117       9.071       9.029       8.995    
        8.958       8.925       8.889       8.826       8.748       8.645       8.521       8.406       8.290       8.067    
        7.686       7.196       6.727       6.378       6.049       5.669       5.291       4.857       4.429       4.091    
        3.768       3.351       2.859       2.440       2.016       1.570       1.061      0.6071      0.2827       0.000    
   5    10.00       9.956       9.905       9.843       9.780       9.716       9.654       9.609       9.567       9.531    
        9.502       9.476       9.435       9.375       9.294       9.201       9.128       9.076       9.035       8.989    
        8.946       8.912       8.867       8.802       8.728       8.612       8.490       8.391       8.274       7.994    
        7.500       6.969       6.581       6.315       6.015       5.627       5.198       4.770       4.463       4.175    
        3.880       3.449       2.934       2.566       2.135       1.551      0.9653      0.5604      0.2818       0.000    
   6    10.00       9.946       9.885       9.837       9.777       9.712       9.659       9.618       9.575       9.542    
        9.515       9.483       9.431       9.361       9.292       9.215       9.136       9.074       9.021       8.969    
        8.931       8.895       8.854       8.786       8.678       8.568       8.475       8.368       8.176       7.779    
        7.237       6.761       6.465       6.261       6.017       5.593       5.125       4.779       4.552       4.297    
        4.008       3.615       3.102       2.643       2.109       1.483      0.8654      0.4928      0.2753       0.000    
   7    10.00       9.930       9.874       9.826       9.769       9.722       9.671       9.629       9.593       9.558    
        9.523       9.477       9.415       9.347       9.285       9.222       9.136       9.052       8.996       8.953    
        8.916       8.878       8.835       8.747       8.637       8.546       8.447       8.281       7.966       7.469    
        6.955       6.584       6.397       6.235       5.927       5.513       5.200       4.893       4.641       4.461    
        4.166       3.757       3.206       2.611       1.953       1.235      0.7252      0.5003      0.2533       0.000    
   8    10.00       9.926       9.873       9.823       9.772       9.730       9.687       9.646       9.611       9.578    
        9.527       9.461       9.396       9.337       9.278       9.202       9.101       9.023       8.980       8.939    
        8.896       8.863       8.797       8.705       8.607       8.502       8.319       8.060       7.640       7.213    
        6.825       6.523       6.377       6.180       5.838       5.515       5.253       5.025       4.818       4.602    
        4.293       3.787       3.150       2.473       1.723       1.115      0.7674      0.4907      0.2260       0.000    
   9    10.00       9.929       9.871       9.821       9.784       9.749       9.707       9.667       9.628       9.589    
        9.526       9.446       9.379       9.319       9.250       9.165       9.076       9.006       8.961       8.918    
        8.879       8.827       8.738       8.654       8.557       8.416       8.157       7.773       7.361       7.052    
        6.743       6.513       6.348       6.087       5.770       5.516       5.327       5.146       4.966       4.729    
        4.345       3.816       3.137       2.380       1.690       1.154      0.7827      0.4866      0.2412       0.000    
  10    10.00       9.928       9.869       9.828       9.796       9.761       9.725       9.690       9.644       9.585    
        9.509       9.429       9.364       9.299       9.228       9.131       9.040       8.985       8.944       8.901    
        8.860       8.779       8.684       8.593       8.465       8.263       7.889       7.471       7.138       6.903    
        6.711       6.516       6.301       6.034       5.756       5.555       5.405       5.254       5.051       4.775    
        4.361       3.780       3.054       2.377       1.830       1.322      0.8379      0.5165      0.2721       0.000    
  11    10.00       9.919       9.873       9.839       9.807       9.777       9.744       9.698       9.635       9.569    
        9.493       9.416       9.354       9.270       9.173       9.089       9.023       8.971       8.930       8.883    
        8.814       8.712       8.581       8.450       8.237       7.942       7.610       7.319       7.040       6.861    
        6.698       6.452       6.205       6.004       5.811       5.654       5.501       5.304       5.063       4.739    
        4.349       3.834       3.096       2.477       1.991       1.502      0.9647      0.5113      0.2052       0.000    
  12    10.00       9.926       9.881       9.845       9.818       9.787       9.751       9.690       9.616       9.549    
        9.478       9.402       9.320       9.220       9.141       9.069       9.001       8.956       8.907       8.838    
        8.711       8.543       8.363       8.174       7.913       7.683       7.492       7.202       6.962       6.808    
        6.631       6.407       6.199       6.023       5.888       5.744       5.558       5.334       5.044       4.703    
        4.317       3.812       3.134       2.579       2.137       1.609       1.014      0.4831      0.1607       0.000    
  13    10.00       9.942       9.901       9.862       9.827       9.792       9.741       9.667       9.590       9.525    
        9.451       9.376       9.292       9.190       9.101       9.029       8.981       8.926       8.859       8.710    
        8.487       8.284       8.087       7.851       7.644       7.530       7.304       7.039       6.903       6.766    
        6.571       6.368       6.211       6.076       5.959       5.825       5.608       5.326       5.038       4.683    
        4.297       3.781       3.080       2.561       2.152       1.573      0.9440      0.4368      0.1262       0.000    
  14    10.00       9.958       9.920       9.879       9.839       9.785       9.712       9.635       9.567       9.493    
        9.421       9.353       9.255       9.144       9.064       9.005       8.933       8.855       8.708       8.451    
        8.212       8.026       7.768       7.569       7.467       7.340       7.109       6.947       6.820       6.687    
        6.513       6.370       6.264       6.141       6.015       5.871       5.627       5.313       5.003       4.641    
        4.225       3.603       2.944       2.524       2.023       1.468      0.9315      0.3991      0.1027       0.000    
  15    10.00       9.967       9.929       9.888       9.842       9.763       9.673       9.606       9.539       9.469    
        9.415       9.337       9.210       9.091       9.019       8.926       8.832       8.734       8.492       8.190    
        7.987       7.725       7.482       7.399       7.328       7.170       6.980       6.821       6.723       6.620    
        6.498       6.401       6.309       6.202       6.064       5.884       5.601       5.245       4.919       4.583    
        4.134       3.527       2.954       2.389       1.784       1.288      0.8012      0.3519      0.1056       0.000    
  16    10.00       9.976       9.939       9.891       9.819       9.723       9.646       9.592       9.532       9.461    
        9.389       9.281       9.139       9.026       8.926       8.819       8.753       8.565       8.214       7.929    
        7.717       7.452       7.351       7.293       7.176       6.979       6.823       6.738       6.687       6.606    
        6.507       6.424       6.349       6.235       6.066       5.845       5.506       5.181       4.921       4.556    
        4.044       3.390       2.734       2.109       1.595       1.105      0.6830      0.3342      0.1127       0.000    
  17    10.00       9.976       9.937       9.875       9.786       9.691       9.627       9.578       9.512       9.434    
        9.319       9.185       9.059       8.938       8.816       8.713       8.560       8.247       7.910       7.704    
        7.491       7.316       7.235       7.120       6.937       6.785       6.735       6.708       6.667       6.588    
        6.504       6.434       6.364       6.260       6.028       5.722       5.428       5.193       4.943       4.484    
        3.801       3.138       2.514       1.902       1.364      0.8941      0.5725      0.2989      0.1228       0.000    
  18    10.00       9.971       9.926       9.852       9.742       9.666       9.615       9.550       9.477       9.371    
        9.235       9.117       8.991       8.833       8.675       8.506       8.281       7.956       7.695       7.508    
        7.328       7.178       7.056       6.893       6.762       6.714       6.695       6.678       6.634       6.568    
        6.504       6.441       6.356       6.187       5.945       5.681       5.426       5.213       4.864       4.255    
        3.559       2.857       2.194       1.693       1.265      0.8382      0.4917      0.2472      0.1185       0.000    
  19    10.00       9.964       9.915       9.808       9.699       9.654       9.600       9.520       9.431       9.319    
        9.195       9.085       8.908       8.671       8.482       8.306       8.029       7.722       7.538       7.391    
        7.203       7.021       6.887       6.757       6.688       6.665       6.652       6.625       6.583       6.543    
        6.498       6.435       6.313       6.140       5.926       5.665       5.428       5.125       4.537       3.912    
        3.355       2.632       2.004       1.607       1.183      0.7562      0.4439      0.2517      0.1289       0.000    
  20    10.00       9.956       9.874       9.765       9.686       9.638       9.580       9.495       9.397       9.296    
        9.170       9.005       8.743       8.506       8.336       8.115       7.832       7.660       7.490       7.284    
        7.075       6.911       6.770       6.675       6.624       6.596       6.564       6.548       6.525       6.506    
        6.476       6.412       6.279       6.104       5.879       5.646       5.351       4.807       4.179       3.686    
        3.087       2.424       1.955       1.571       1.143      0.6707      0.3875      0.2619      0.1350       0.000    
  21    10.00       9.927       9.839       9.748       9.672       9.622       9.559       9.461       9.364       9.270    
        9.104       8.854       8.586       8.405       8.213       7.977       7.763       7.597       7.391       7.170    
        6.967       6.805       6.681       6.582       6.514       6.465       6.447       6.450       6.445       6.444    
        6.433       6.360       6.217       6.037       5.805       5.546       5.093       4.528       4.031       3.434    
        2.869       2.347       1.952       1.564      0.9621      0.5425      0.3921      0.2958      0.1418       0.000    
  22    10.00       9.908       9.803       9.723       9.662       9.603       9.516       9.426       9.341       9.211    
        9.000       8.718       8.503       8.339       8.122       7.877       7.667       7.488       7.296       7.085    
        6.883       6.711       6.547       6.398       6.312       6.292       6.308       6.322       6.351       6.364    
        6.355       6.270       6.143       5.951       5.707       5.448       4.980       4.428       3.782       3.207    
        2.798       2.382       1.907       1.259      0.7493      0.5404      0.4108      0.2734      0.1011       0.000    
  23    10.00       9.881       9.780       9.717       9.654       9.566       9.472       9.405       9.299       9.137    
        8.891       8.648       8.493       8.287       8.002       7.754       7.586       7.438       7.258       7.030    
        6.816       6.616       6.383       6.107       5.904       5.948       6.080       6.167       6.238       6.278    
        6.268       6.189       6.058       5.882       5.646       5.347       4.872       4.193       3.550       3.146    
        2.769       2.246       1.567       1.013      0.7368      0.5508      0.3939      0.2323      9.2445E-02   0.000    
  24    10.00       9.864       9.791       9.716       9.627       9.536       9.464       9.390       9.287       9.073    
        8.841       8.661       8.485       8.209       7.892       7.711       7.569       7.424       7.218       7.003    
        6.814       6.560       6.187       5.663       5.021       5.294       5.694       5.968       6.121       6.186    
        6.186       6.112       5.994       5.800       5.547       5.183       4.592       3.956       3.473       3.051    
        2.591       2.009       1.404      0.9816      0.7378      0.5364      0.3592      0.2516      0.1235       0.000    
  25    10.00       9.880       9.806       9.711       9.619       9.535       9.463       9.395       9.242       9.033    
        8.853       8.670       8.437       8.131       7.895       7.735       7.576       7.401       7.213       7.029    
        6.811       6.569       6.037       5.037       3.239       4.597       5.336       5.769       6.022       6.127    
        6.127       6.061       5.932       5.678       5.350       4.880       4.338       3.839       3.422       2.927    
        2.373       1.818       1.309      0.9725      0.7646      0.5572      0.3784      0.2635      0.1640       0.000    
  26    10.00       9.897       9.825       9.726       9.626       9.550       9.473       9.372       9.220       9.073    
        8.904       8.651       8.364       8.115       7.938       7.784       7.600       7.385       7.202       7.048    
        6.869       6.633       6.179       5.452       4.641       5.009       5.465       5.787       6.016       6.111    
        6.086       6.010       5.833       5.544       5.193       4.750       4.158       3.689       3.304       2.708    
        2.084       1.600       1.296       1.062      0.8244      0.6015      0.4124      0.2862      0.1672       0.000    
  27    10.00       9.918       9.830       9.741       9.654       9.564       9.478       9.375       9.249       9.113    
        8.896       8.608       8.356       8.150       8.003       7.826       7.586       7.363       7.222       7.097    
        6.959       6.745       6.407       5.988       5.570       5.563       5.744       5.949       6.096       6.114    
        6.059       5.969       5.771       5.464       5.061       4.475       3.932       3.554       2.979       2.361    
        1.880       1.570       1.341       1.136      0.9013      0.6565      0.4480      0.3150      0.1987       0.000    
  28    10.00       9.924       9.852       9.771       9.686       9.590       9.494       9.394       9.283       9.122    
        8.865       8.612       8.391       8.190       8.034       7.858       7.664       7.455       7.263       7.136    
        7.028       6.877       6.665       6.372       6.129       5.993       6.035       6.147       6.172       6.132    
        6.045       5.921       5.685       5.313       4.800       4.212       3.759       3.240       2.651       2.217    
        1.876       1.613       1.389       1.175      0.9470      0.7164      0.5082      0.3586      0.2049       0.000    
  29    10.00       9.929       9.859       9.795       9.712       9.625       9.531       9.427       9.303       9.087    
        8.845       8.628       8.416       8.247       8.068       7.882       7.707       7.542       7.363       7.202    
        7.087       6.973       6.837       6.669       6.443       6.333       6.313       6.299       6.260       6.148    
        6.010       5.800       5.536       5.069       4.479       3.987       3.545       3.015       2.548       2.233    
        1.957       1.669       1.415       1.210       1.004      0.7575      0.5369      0.3746      0.2077       0.000    
  30    10.00       9.939       9.880       9.824       9.749       9.663       9.577       9.458       9.290       9.091    
        8.845       8.607       8.433       8.261       8.089       7.923       7.784       7.635       7.464       7.293    
        7.156       7.062       6.949       6.838       6.714       6.594       6.532       6.431       6.317       6.149    
        5.913       5.591       5.258       4.799       4.357       3.908       3.442       2.951       2.602       2.317    
        1.990       1.701       1.481       1.247       1.002      0.7837      0.5722      0.3978      0.2235       0.000    
  31    10.00       9.951       9.903       9.849       9.793       9.722       9.624       9.474       9.279       9.069    
        8.829       8.616       8.456       8.287       8.128       7.974       7.838       7.721       7.548       7.380    
        7.257       7.157       7.067       6.967       6.871       6.758       6.643       6.522       6.344       6.093    
        5.736       5.366       5.050       4.701       4.291       3.823       3.357       2.960       2.715       2.444    
        2.081       1.764       1.513       1.276       1.049      0.8242      0.6062      0.4186      0.2167       0.000    
  32    10.00       9.957       9.922       9.876       9.822       9.754       9.648       9.472       9.293       9.093    
        8.845       8.648       8.496       8.320       8.146       8.019       7.903       7.766       7.625       7.464    
        7.333       7.228       7.130       7.020       6.923       6.840       6.710       6.537       6.287       5.957    
        5.581       5.245       4.943       4.623       4.225       3.809       3.445       3.109       2.829       2.517    
        2.182       1.869       1.605       1.334       1.086      0.8960      0.6682      0.4106      0.1833       0.000    
  33    10.00       9.964       9.936       9.896       9.841       9.768       9.627       9.453       9.309       9.126    
        8.898       8.709       8.526       8.323       8.168       8.066       7.965       7.824       7.671       7.523    
        7.381       7.265       7.137       7.028       6.952       6.868       6.685       6.432       6.172       5.874    
        5.515       5.230       4.924       4.545       4.181       3.817       3.524       3.258       2.939       2.596    
        2.307       2.012       1.722       1.442       1.182      0.9697      0.7146      0.4124      0.1792       0.000    
  34    10.00       9.970       9.949       9.914       9.841       9.731       9.600       9.479       9.329       9.147    
        8.949       8.739       8.529       8.328       8.205       8.122       8.012       7.873       7.696       7.547    
        7.409       7.259       7.127       7.029       6.948       6.815       6.594       6.362       6.104       5.762    
        5.452       5.233       4.929       4.568       4.216       3.886       3.611       3.347       3.020       2.711    
        2.454       2.171       1.854       1.575       1.311       1.068      0.7640      0.4638      0.2432       0.000    
  35    10.00       9.975       9.948       9.898       9.806       9.699       9.604       9.499       9.375       9.175    
        8.954       8.737       8.522       8.360       8.256       8.167       8.043       7.890       7.711       7.534    
        7.362       7.216       7.083       6.992       6.902       6.769       6.541       6.275       5.978       5.630    
        5.406       5.171       4.874       4.613       4.324       3.981       3.681       3.462       3.155       2.828    
        2.580       2.290       1.973       1.698       1.424       1.158      0.8756      0.5803      0.2871       0.000    
  36    10.00       9.969       9.925       9.870       9.784       9.684       9.604       9.512       9.376       9.178    
        8.931       8.697       8.546       8.428       8.323       8.203       8.053       7.891       7.688       7.429    
        7.244       7.132       7.023       6.945       6.859       6.693       6.436       6.152       5.795       5.498    
        5.316       5.129       4.880       4.633       4.393       4.089       3.792       3.561       3.288       2.932    
        2.660       2.337       2.021       1.811       1.545       1.249      0.9658      0.6572      0.3215       0.000    
  37    10.00       9.951       9.904       9.849       9.764       9.676       9.584       9.494       9.367       9.133    
        8.874       8.697       8.611       8.494       8.358       8.233       8.035       7.827       7.549       7.278    
        7.174       7.079       6.973       6.886       6.781       6.575       6.321       5.946       5.630       5.448    
        5.298       5.104       4.862       4.670       4.428       4.141       3.910       3.689       3.382       2.991    
        2.635       2.332       2.112       1.895       1.628       1.347       1.064      0.7248      0.3980       0.000    
  38    10.00       9.943       9.883       9.824       9.749       9.664       9.566       9.468       9.319       9.098    
        8.904       8.766       8.654       8.543       8.388       8.170       7.937       7.682       7.369       7.202    
        7.119       6.990       6.872       6.803       6.676       6.456       6.087       5.746       5.590       5.456    
        5.300       5.098       4.882       4.693       4.457       4.198       4.009       3.784       3.393       2.963    
        2.654       2.401       2.183       1.959       1.723       1.437       1.155      0.8382      0.4142       0.000    
  39    10.00       9.927       9.867       9.813       9.741       9.643       9.537       9.435       9.294       9.113    
        8.960       8.853       8.724       8.563       8.317       8.033       7.771       7.467       7.253       7.153    
        7.014       6.862       6.775       6.706       6.581       6.286       5.929       5.737       5.599       5.462    
        5.285       5.097       4.891       4.702       4.525       4.313       4.065       3.793       3.408       3.007    
        2.682       2.421       2.249       2.061       1.795       1.513       1.226      0.8725      0.4088       0.000    
  40    10.00       9.918       9.860       9.806       9.730       9.628       9.525       9.422       9.297       9.145    
        9.018       8.920       8.748       8.482       8.166       7.881       7.603       7.348       7.198       7.061    
        6.898       6.770       6.701       6.609       6.443       6.180       5.950       5.764       5.612       5.469    
        5.297       5.097       4.904       4.748       4.592       4.379       4.093       3.808       3.417       2.988    
        2.683       2.476       2.287       2.127       1.847       1.538       1.276      0.8750      0.4073       0.000    
  41    10.00       9.925       9.858       9.791       9.709       9.628       9.541       9.446       9.321       9.181    
        9.058       8.933       8.698       8.374       8.050       7.785       7.514       7.275       7.125       6.972    
        6.808       6.699       6.618       6.509       6.341       6.151       5.999       5.821       5.631       5.465    
        5.301       5.122       4.939       4.804       4.639       4.426       4.140       3.747       3.299       2.968    
        2.747       2.547       2.352       2.128       1.837       1.541       1.317      0.9322      0.4227       0.000    
  42    10.00       9.924       9.847       9.788       9.728       9.653       9.560       9.451       9.343       9.234    
        9.070       8.847       8.572       8.262       7.961       7.721       7.455       7.225       7.061       6.888    
        6.736       6.639       6.547       6.450       6.302       6.174       6.047       5.844       5.633       5.484    
        5.352       5.157       4.961       4.830       4.678       4.451       4.099       3.636       3.226       2.980    
        2.814       2.635       2.386       2.088       1.809       1.578       1.345      0.9833      0.4851       0.000    
  43    10.00       9.917       9.852       9.801       9.753       9.680       9.588       9.483       9.361       9.185    
        8.967       8.736       8.480       8.157       7.888       7.666       7.427       7.193       6.986       6.824    
        6.689       6.591       6.516       6.437       6.314       6.183       6.054       5.844       5.661       5.553    
        5.392       5.182       4.993       4.859       4.681       4.387       3.981       3.543       3.244       3.056    
        2.878       2.673       2.367       2.062       1.815       1.592       1.391      0.9972      0.4557       0.000    
  44    10.00       9.917       9.860       9.814       9.755       9.700       9.623       9.480       9.295       9.089    
        8.905       8.672       8.362       8.093       7.879       7.623       7.361       7.111       6.906       6.765    
        6.667       6.585       6.511       6.430       6.324       6.191       6.017       5.844       5.722       5.593    
        5.448       5.265       5.050       4.845       4.628       4.299       3.874       3.513       3.282       3.100    
        2.921       2.677       2.382       2.118       1.854       1.614       1.369      0.9003      0.4140       0.000    
  45    10.00       9.926       9.873       9.813       9.755       9.707       9.579       9.407       9.219       9.042    
        8.890       8.577       8.255       8.060       7.828       7.542       7.257       7.026       6.861       6.751    
        6.677       6.601       6.519       6.425       6.308       6.176       6.031       5.898       5.791       5.657    
        5.490       5.300       5.078       4.819       4.560       4.207       3.808       3.524       3.348       3.160    
        2.922       2.643       2.390       2.149       1.915       1.676       1.278      0.8000      0.4026       0.000    
  46    10.00       9.940       9.883       9.813       9.746       9.650       9.510       9.379       9.221       9.032    
        8.779       8.480       8.222       7.974       7.727       7.450       7.185       7.015       6.880       6.775    
        6.701       6.626       6.523       6.405       6.292       6.182       6.068       5.947       5.838       5.720    
        5.569       5.369       5.117       4.810       4.441       4.074       3.779       3.578       3.395       3.199    
        2.917       2.620       2.368       2.177       1.954       1.643       1.190      0.7641      0.3767       0.000    
  47    10.00       9.951       9.897       9.826       9.713       9.586       9.466       9.363       9.218       8.967    
        8.663       8.390       8.165       7.958       7.696       7.395       7.161       7.000       6.892       6.804    
        6.723       6.635       6.526       6.403       6.294       6.207       6.113       5.994       5.869       5.753    
        5.622       5.454       5.120       4.690       4.329       4.066       3.819       3.646       3.484       3.213    
        2.869       2.555       2.327       2.195       1.948       1.567       1.125      0.7370      0.3724       0.000    
  48    10.00       9.956       9.900       9.795       9.678       9.568       9.448       9.344       9.196       8.913    
        8.582       8.352       8.169       7.915       7.609       7.338       7.162       7.000       6.892       6.823    
        6.741       6.635       6.518       6.405       6.316       6.247       6.163       6.031       5.887       5.762    
        5.624       5.422       5.074       4.717       4.396       4.105       3.885       3.708       3.500       3.157    
        2.787       2.545       2.363       2.130       1.806       1.468       1.089      0.7423      0.3930       0.000    
  49    10.00       9.953       9.869       9.767       9.679       9.561       9.444       9.334       9.148       8.848    
        8.552       8.333       8.103       7.846       7.615       7.363       7.118       6.968       6.902       6.838    
        6.759       6.638       6.502       6.404       6.336       6.285       6.189       6.036       5.884       5.771    
        5.622       5.357       5.049       4.797       4.527       4.207       3.922       3.703       3.459       3.091    
        2.793       2.581       2.330       1.994       1.707       1.402       1.071      0.7545      0.3842       0.000    
  50    10.00       9.941       9.848       9.755       9.684       9.574       9.444       9.304       9.103       8.866    
        8.566       8.272       8.033       7.828       7.643       7.360       7.082       6.968       6.910       6.847    
        6.772       6.635       6.491       6.402       6.348       6.301       6.193       6.029       5.884       5.768    
        5.606       5.327       5.091       4.874       4.582       4.263       3.974       3.684       3.333       3.007    
        2.850       2.626       2.260       1.923       1.682       1.392       1.104      0.7369      0.3027       0.000    

 HEAD WILL BE SAVED ON UNIT   51 AT END OF TIME STEP  19, STRESS PERIOD    2

 DRAWDOWN WILL BE SAVED ON UNIT   52 AT END OF TIME STEP  19, STRESS PERIOD    2
1
  VOLUMETRIC BUDGET FOR ENTIRE MODEL AT END OF TIME STEP 19 IN STRESS PERIOD   2
  ------------------------------------------------------------------------------

     CUMULATIVE VOLUMES      L**3       RATES FOR THIS TIME STEP      L**3/T
     ------------------                 ------------------------

           IN:                                      IN:
           ---                                      ---
             STORAGE =        9492.8164               STORAGE =         498.1946
       CONSTANT HEAD =       10805.0127         CONSTANT HEAD =         541.6889
               WELLS =           0.0000                 WELLS =           0.0000

            TOTAL IN =       20297.8281              TOTAL IN =        1039.8835

          OUT:                                     OUT:
          ----                                     ----
             STORAGE =       9.3745E-03               STORAGE =           0.0000
       CONSTANT HEAD =       10797.8193         CONSTANT HEAD =         539.8835
               WELLS =        9500.0000                 WELLS =         500.0000

           TOTAL OUT =       20297.8281             TOTAL OUT =        1039.8835

            IN - OUT =           0.0000              IN - OUT =           0.0000

 PERCENT DISCREPANCY =           0.00     PERCENT DISCREPANCY =           0.00






          TIME SUMMARY AT END OF TIME STEP  19 IN STRESS PERIOD    2
                    SECONDS     MINUTES      HOURS       DAYS        YEARS
                    -----------------------------------------------------------
   TIME STEP LENGTH  86400.      1440.0      24.000      1.0000     2.73785E-03
 STRESS PERIOD TIME 1.64160E+06  27360.      456.00      19.000     5.20192E-02
         TOTAL TIME 1.72800E+06  28800.      480.00      20.000     5.47570E-02
1
 
 SOLVING FOR HEAD 

 OUTPUT CONTROL FOR STRESS PERIOD    2   TIME STEP  20
    SAVE HEAD FOR ALL LAYERS
    SAVE DRAWDOWN FOR ALL LAYERS
    SAVE BUDGET
    PRINT HEAD FOR ALL LAYERS
    PRINT BUDGET
 UBDSV1 SAVING "         STORAGE" ON UNIT  53 AT TIME STEP 20, STRESS PERIOD   2
 UBDSV2 SAVING "   CONSTANT HEAD" ON UNIT  53 AT TIME STEP 20, STRESS PERIOD   2
 UBDSV1 SAVING "FLOW RIGHT FACE " ON UNIT  53 AT TIME STEP 20, STRESS PERIOD   2
 UBDSV1 SAVING "FLOW FRONT FACE " ON UNIT  53 AT TIME STEP 20, STRESS PERIOD   2
1
              HEAD IN LAYER   1 AT END OF TIME STEP  20 IN STRESS PERIOD    2
  ---------------------------------------------------------------------------

            1           2           3           4           5           6           7           8           9          10
           11          12          13          14          15          16          17          18          19          20
           21          22          23          24          25          26          27          28          29          30
           31          32          33          34          35          36          37          38          39          40
           41          42          43          44          45          46          47          48          49          50
 ........................................................................................................................
   1    10.00       9.960       9.904       9.849       9.804       9.748       9.693       9.635       9.558       9.496    
        9.459       9.421       9.379       9.338       9.271       9.198       9.119       9.056       9.028       8.996    
        8.957       8.922       8.887       8.841       8.777       8.666       8.532       8.400       8.250       8.099    
        7.886       7.547       7.149       6.731       6.262       5.830       5.464       5.124       4.659       4.154    
        3.724       3.299       2.713       2.157       1.767       1.377       1.050      0.8388      0.5562       0.000    
   2    10.00       9.959       9.910       9.855       9.806       9.754       9.693       9.618       9.544       9.496    
        9.462       9.429       9.397       9.345       9.269       9.193       9.120       9.059       9.029       8.993    
        8.953       8.926       8.898       8.849       8.777       8.671       8.536       8.399       8.257       8.107    
        7.876       7.527       7.109       6.637       6.164       5.747       5.420       5.086       4.615       4.143    
        3.709       3.197       2.667       2.226       1.839       1.475       1.101      0.7966      0.4252       0.000    
   3    10.00       9.955       9.908       9.858       9.808       9.749       9.673       9.602       9.555       9.511    
        9.472       9.443       9.411       9.363       9.286       9.192       9.116       9.065       9.027       8.991    
        8.957       8.929       8.901       8.841       8.763       8.656       8.529       8.426       8.276       8.097    
        7.800       7.397       6.955       6.498       6.062       5.672       5.379       5.036       4.528       4.068    
        3.706       3.238       2.748       2.324       1.921       1.554       1.112      0.6836      0.3006       0.000    
   4    10.00       9.959       9.911       9.856       9.795       9.727       9.655       9.602       9.561       9.520    
        9.486       9.462       9.427       9.374       9.304       9.202       9.116       9.070       9.028       8.994    
        8.957       8.924       8.888       8.825       8.746       8.644       8.520       8.405       8.289       8.066    
        7.685       7.196       6.726       6.377       6.048       5.668       5.290       4.857       4.428       4.091    
        3.767       3.351       2.859       2.440       2.016       1.570       1.061      0.6071      0.2827       0.000    
   5    10.00       9.956       9.905       9.843       9.780       9.716       9.653       9.608       9.567       9.531    
        9.501       9.475       9.435       9.374       9.293       9.200       9.127       9.075       9.034       8.987    
        8.944       8.910       8.866       8.801       8.727       8.611       8.488       8.389       8.273       7.993    
        7.499       6.967       6.580       6.314       6.014       5.627       5.197       4.769       4.462       4.174    
        3.880       3.448       2.934       2.566       2.135       1.551      0.9652      0.5604      0.2818       0.000    
   6    10.00       9.946       9.885       9.836       9.777       9.711       9.658       9.618       9.575       9.542    
        9.515       9.482       9.430       9.360       9.291       9.214       9.135       9.073       9.020       8.968    
        8.929       8.894       8.853       8.784       8.677       8.566       8.474       8.367       8.175       7.778    
        7.235       6.759       6.463       6.260       6.016       5.592       5.124       4.778       4.551       4.296    
        4.007       3.615       3.102       2.643       2.109       1.483      0.8654      0.4928      0.2753       0.000    
   7    10.00       9.930       9.873       9.826       9.769       9.722       9.671       9.629       9.593       9.558    
        9.522       9.477       9.414       9.346       9.284       9.220       9.134       9.051       8.995       8.952    
        8.914       8.876       8.833       8.745       8.635       8.545       8.445       8.279       7.964       7.467    
        6.953       6.581       6.394       6.233       5.925       5.511       5.198       4.891       4.640       4.460    
        4.165       3.757       3.206       2.611       1.953       1.235      0.7252      0.5003      0.2533       0.000    
   8    10.00       9.926       9.873       9.823       9.772       9.730       9.686       9.646       9.611       9.577    
        9.526       9.460       9.395       9.336       9.277       9.201       9.100       9.021       8.978       8.937    
        8.894       8.861       8.794       8.702       8.605       8.499       8.316       8.058       7.637       7.209    
        6.821       6.520       6.374       6.177       5.835       5.512       5.251       5.023       4.816       4.600    
        4.292       3.787       3.150       2.472       1.723       1.115      0.7674      0.4907      0.2260       0.000    
   9    10.00       9.929       9.871       9.820       9.784       9.749       9.707       9.667       9.627       9.589    
        9.525       9.446       9.378       9.318       9.249       9.164       9.074       9.004       8.959       8.916    
        8.877       8.825       8.735       8.651       8.554       8.413       8.153       7.769       7.356       7.047    
        6.738       6.508       6.343       6.084       5.766       5.513       5.324       5.144       4.964       4.728    
        4.344       3.815       3.137       2.379       1.690       1.154      0.7827      0.4866      0.2412       0.000    
  10    10.00       9.928       9.869       9.827       9.795       9.761       9.725       9.690       9.644       9.585    
        9.508       9.428       9.363       9.298       9.226       9.129       9.038       8.983       8.941       8.898    
        8.857       8.776       8.680       8.589       8.461       8.258       7.883       7.465       7.131       6.896    
        6.705       6.510       6.296       6.029       5.751       5.551       5.402       5.251       5.049       4.773    
        4.360       3.779       3.053       2.376       1.830       1.322      0.8379      0.5165      0.2721       0.000    
  11    10.00       9.919       9.873       9.839       9.806       9.776       9.744       9.698       9.634       9.568    
        9.493       9.415       9.353       9.268       9.171       9.087       9.021       8.968       8.927       8.880    
        8.810       8.708       8.576       8.445       8.230       7.933       7.600       7.310       7.032       6.852    
        6.690       6.445       6.198       5.998       5.806       5.649       5.496       5.301       5.060       4.737    
        4.348       3.833       3.096       2.476       1.991       1.502      0.9647      0.5113      0.2052       0.000    
  12    10.00       9.926       9.881       9.845       9.818       9.787       9.751       9.690       9.615       9.548    
        9.477       9.401       9.319       9.218       9.139       9.067       8.999       8.953       8.904       8.834    
        8.706       8.537       8.356       8.164       7.901       7.671       7.480       7.190       6.951       6.798    
        6.621       6.398       6.191       6.016       5.882       5.739       5.554       5.331       5.042       4.701    
        4.316       3.812       3.134       2.579       2.137       1.609       1.014      0.4831      0.1607       0.000    
  13    10.00       9.942       9.900       9.862       9.827       9.792       9.741       9.666       9.590       9.524    
        9.450       9.375       9.290       9.188       9.098       9.026       8.978       8.922       8.855       8.704    
        8.479       8.273       8.075       7.837       7.628       7.515       7.288       7.024       6.889       6.753    
        6.559       6.357       6.201       6.067       5.951       5.818       5.603       5.322       5.036       4.681    
        4.296       3.781       3.080       2.561       2.152       1.573      0.9440      0.4368      0.1262       0.000    
  14    10.00       9.958       9.920       9.879       9.838       9.785       9.712       9.634       9.566       9.492    
        9.420       9.351       9.252       9.141       9.060       9.001       8.928       8.850       8.701       8.441    
        8.199       8.012       7.751       7.551       7.449       7.322       7.090       6.928       6.802       6.671    
        6.499       6.356       6.252       6.131       6.006       5.863       5.621       5.309       5.001       4.639    
        4.224       3.602       2.943       2.524       2.023       1.468      0.9315      0.3991      0.1027       0.000    
  15    10.00       9.967       9.929       9.888       9.841       9.762       9.673       9.605       9.538       9.468    
        9.413       9.335       9.207       9.088       9.015       8.921       8.826       8.727       8.482       8.176    
        7.971       7.706       7.460       7.377       7.307       7.148       6.959       6.800       6.703       6.601    
        6.481       6.386       6.296       6.190       6.054       5.876       5.595       5.241       4.916       4.582    
        4.133       3.526       2.954       2.389       1.784       1.288      0.8012      0.3519      0.1056       0.000    
  16    10.00       9.976       9.939       9.891       9.819       9.722       9.646       9.591       9.531       9.459    
        9.387       9.279       9.136       9.022       8.921       8.812       8.745       8.555       8.199       7.910    
        7.696       7.429       7.328       7.270       7.152       6.955       6.799       6.715       6.665       6.586    
        6.489       6.408       6.334       6.222       6.055       5.837       5.500       5.177       4.918       4.555    
        4.043       3.390       2.734       2.109       1.595       1.105      0.6829      0.3342      0.1127       0.000    
  17    10.00       9.976       9.937       9.875       9.786       9.690       9.626       9.577       9.511       9.433    
        9.317       9.181       9.054       8.932       8.809       8.704       8.549       8.232       7.890       7.681    
        7.466       7.291       7.210       7.095       6.911       6.759       6.709       6.683       6.643       6.566    
        6.485       6.417       6.348       6.246       6.017       5.714       5.423       5.189       4.940       4.482    
        3.800       3.137       2.514       1.901       1.364      0.8941      0.5725      0.2989      0.1228       0.000    
  18    10.00       9.970       9.926       9.852       9.742       9.665       9.615       9.549       9.475       9.369    
        9.232       9.112       8.985       8.825       8.665       8.494       8.265       7.935       7.671       7.483    
        7.302       7.150       7.028       6.865       6.734       6.686       6.668       6.652       6.608       6.545    
        6.483       6.422       6.339       6.173       5.935       5.673       5.420       5.209       4.861       4.253    
        3.558       2.857       2.194       1.693       1.265      0.8382      0.4917      0.2472      0.1185       0.000    
  19    10.00       9.964       9.915       9.808       9.698       9.654       9.599       9.519       9.429       9.317    
        9.192       9.081       8.901       8.660       8.469       8.291       8.009       7.698       7.512       7.364    
        7.175       6.992       6.857       6.728       6.659       6.636       6.623       6.597       6.556       6.518    
        6.476       6.414       6.295       6.126       5.915       5.657       5.422       5.121       4.535       3.911    
        3.355       2.632       2.004       1.607       1.183      0.7561      0.4439      0.2517      0.1289       0.000    
  20    10.00       9.956       9.874       9.764       9.685       9.638       9.579       9.494       9.395       9.293    
        9.166       8.999       8.733       8.493       8.320       8.096       7.810       7.635       7.464       7.256    
        7.046       6.880       6.739       6.645       6.594       6.566       6.534       6.519       6.496       6.480    
        6.451       6.390       6.261       6.089       5.868       5.638       5.345       4.804       4.178       3.685    
        3.087       2.423       1.954       1.571       1.143      0.6707      0.3875      0.2619      0.1350       0.000    
  21    10.00       9.927       9.839       9.748       9.671       9.621       9.558       9.460       9.362       9.267    
        9.100       8.847       8.575       8.391       8.195       7.956       7.739       7.571       7.363       7.141    
        6.937       6.774       6.649       6.551       6.483       6.433       6.416       6.419       6.415       6.416    
        6.407       6.337       6.198       6.023       5.795       5.539       5.089       4.526       4.030       3.433    
        2.868       2.347       1.952       1.564      0.9621      0.5425      0.3921      0.2958      0.1418       0.000    
  22    10.00       9.908       9.803       9.723       9.662       9.602       9.515       9.424       9.339       9.208    
        8.995       8.709       8.490       8.323       8.103       7.854       7.642       7.461       7.268       7.055    
        6.851       6.679       6.515       6.366       6.280       6.260       6.276       6.290       6.320       6.334    
        6.328       6.247       6.123       5.937       5.697       5.440       4.976       4.426       3.781       3.207    
        2.798       2.382       1.907       1.259      0.7493      0.5404      0.4108      0.2734      0.1011       0.000    
  23    10.00       9.881       9.780       9.717       9.654       9.565       9.471       9.404       9.296       9.133    
        8.884       8.638       8.480       8.271       7.982       7.730       7.560       7.411       7.229       7.000    
        6.785       6.583       6.349       6.073       5.870       5.914       6.047       6.133       6.206       6.247    
        6.240       6.165       6.039       5.867       5.635       5.340       4.869       4.192       3.550       3.145    
        2.769       2.246       1.567       1.013      0.7368      0.5508      0.3939      0.2323      9.2445E-02   0.000    
  24    10.00       9.864       9.791       9.716       9.626       9.535       9.463       9.388       9.285       9.069    
        8.833       8.650       8.472       8.192       7.870       7.687       7.543       7.397       7.189       6.973    
        6.782       6.528       6.153       5.629       4.985       5.258       5.658       5.933       6.087       6.154    
        6.158       6.088       5.974       5.785       5.537       5.177       4.590       3.955       3.472       3.051    
        2.591       2.009       1.404      0.9816      0.7378      0.5364      0.3592      0.2516      0.1235       0.000    
  25    10.00       9.880       9.806       9.711       9.618       9.534       9.462       9.393       9.238       9.028    
        8.846       8.660       8.424       8.112       7.874       7.712       7.550       7.374       7.184       6.998    
        6.779       6.537       6.003       5.001       3.201       4.559       5.299       5.733       5.987       6.095    
        6.099       6.037       5.912       5.664       5.341       4.874       4.335       3.838       3.422       2.927    
        2.372       1.818       1.309      0.9725      0.7646      0.5572      0.3784      0.2635      0.1640       0.000    
  26    10.00       9.896       9.825       9.725       9.625       9.549       9.471       9.370       9.216       9.069    
        8.897       8.640       8.350       8.097       7.917       7.761       7.575       7.358       7.174       7.018    
        6.838       6.601       6.145       5.417       4.604       4.970       5.426       5.750       5.981       6.080    
        6.060       5.987       5.815       5.532       5.185       4.745       4.156       3.688       3.303       2.708    
        2.084       1.600       1.296       1.062      0.8244      0.6015      0.4124      0.2862      0.1672       0.000    
  27    10.00       9.918       9.829       9.740       9.654       9.563       9.476       9.373       9.245       9.109    
        8.889       8.597       8.342       8.133       7.983       7.804       7.561       7.336       7.194       7.068    
        6.929       6.714       6.374       5.953       5.533       5.524       5.705       5.911       6.061       6.085    
        6.035       5.948       5.755       5.453       5.054       4.472       3.930       3.553       2.978       2.361    
        1.880       1.570       1.341       1.136      0.9013      0.6565      0.4480      0.3150      0.1987       0.000    
  28    10.00       9.924       9.851       9.770       9.685       9.589       9.492       9.392       9.279       9.118    
        8.858       8.602       8.378       8.174       8.016       7.837       7.641       7.430       7.235       7.107    
        6.998       6.847       6.633       6.338       6.093       5.955       5.998       6.112       6.140       6.105    
        6.022       5.902       5.671       5.304       4.795       4.210       3.758       3.240       2.650       2.217    
        1.876       1.613       1.389       1.175      0.9470      0.7163      0.5082      0.3586      0.2049       0.000    
  29    10.00       9.929       9.858       9.795       9.711       9.624       9.529       9.425       9.300       9.082    
        8.838       8.618       8.404       8.232       8.051       7.862       7.686       7.518       7.337       7.174    
        7.058       6.944       6.806       6.637       6.409       6.298       6.279       6.267       6.232       6.124    
        5.990       5.785       5.526       5.064       4.477       3.986       3.545       3.014       2.548       2.232    
        1.957       1.669       1.415       1.210       1.004      0.7575      0.5369      0.3746      0.2077       0.000    
  30    10.00       9.939       9.880       9.824       9.748       9.662       9.576       9.456       9.287       9.086    
        8.838       8.598       8.422       8.247       8.074       7.905       7.764       7.613       7.439       7.268    
        7.129       7.034       6.920       6.808       6.683       6.563       6.503       6.404       6.294       6.129    
        5.898       5.581       5.252       4.795       4.355       3.907       3.442       2.951       2.601       2.317    
        1.990       1.701       1.481       1.247       1.002      0.7837      0.5722      0.3978      0.2235       0.000    
  31    10.00       9.951       9.902       9.849       9.792       9.722       9.623       9.472       9.276       9.064    
        8.823       8.607       8.446       8.275       8.114       7.957       7.820       7.702       7.526       7.356    
        7.232       7.131       7.041       6.941       6.847       6.734       6.619       6.500       6.324       6.078    
        5.726       5.360       5.046       4.699       4.290       3.822       3.357       2.959       2.715       2.444    
        2.081       1.764       1.513       1.276       1.049      0.8242      0.6062      0.4186      0.2167       0.000    
  32    10.00       9.957       9.922       9.875       9.821       9.754       9.647       9.471       9.291       9.089    
        8.839       8.640       8.487       8.308       8.133       8.004       7.887       7.748       7.606       7.443    
        7.311       7.204       7.108       6.999       6.902       6.820       6.690       6.519       6.274       5.947    
        5.575       5.242       4.940       4.621       4.224       3.809       3.445       3.109       2.828       2.517    
        2.182       1.869       1.605       1.334       1.086      0.8960      0.6682      0.4106      0.1833       0.000    
  33    10.00       9.964       9.936       9.896       9.840       9.767       9.626       9.451       9.306       9.123    
        8.893       8.702       8.518       8.313       8.157       8.053       7.951       7.808       7.654       7.504    
        7.361       7.244       7.118       7.010       6.934       6.850       6.669       6.420       6.163       5.867    
        5.511       5.228       4.922       4.544       4.181       3.817       3.524       3.258       2.939       2.596    
        2.307       2.012       1.722       1.442       1.182      0.9697      0.7146      0.4124      0.1792       0.000    
  34    10.00       9.970       9.948       9.914       9.840       9.731       9.599       9.478       9.327       9.144    
        8.945       8.734       8.522       8.319       8.195       8.111       8.000       7.859       7.681       7.531    
        7.393       7.243       7.111       7.013       6.933       6.802       6.583       6.353       6.097       5.758    
        5.450       5.231       4.928       4.567       4.216       3.886       3.611       3.347       3.020       2.711    
        2.454       2.171       1.854       1.575       1.311       1.068      0.7640      0.4638      0.2432       0.000    
  35    10.00       9.975       9.948       9.898       9.806       9.698       9.604       9.498       9.374       9.173    
        8.950       8.733       8.516       8.353       8.247       8.157       8.032       7.879       7.699       7.520    
        7.349       7.203       7.071       6.980       6.891       6.759       6.533       6.269       5.974       5.628    
        5.404       5.170       4.874       4.613       4.323       3.981       3.681       3.462       3.155       2.828    
        2.580       2.290       1.973       1.698       1.424       1.158      0.8756      0.5803      0.2871       0.000    
  36    10.00       9.968       9.925       9.870       9.784       9.684       9.604       9.511       9.374       9.176    
        8.928       8.694       8.541       8.422       8.316       8.195       8.045       7.882       7.678       7.419    
        7.235       7.123       7.014       6.937       6.851       6.685       6.431       6.148       5.792       5.497    
        5.315       5.128       4.880       4.632       4.393       4.089       3.792       3.561       3.288       2.932    
        2.660       2.337       2.021       1.811       1.545       1.249      0.9658      0.6572      0.3215       0.000    
  37    10.00       9.951       9.904       9.849       9.764       9.676       9.584       9.494       9.366       9.131    
        8.871       8.694       8.606       8.489       8.352       8.227       8.029       7.820       7.542       7.272    
        7.167       7.072       6.967       6.880       6.775       6.570       6.318       5.944       5.629       5.448    
        5.297       5.104       4.862       4.670       4.427       4.141       3.910       3.689       3.382       2.991    
        2.635       2.332       2.112       1.895       1.628       1.347       1.064      0.7248      0.3980       0.000    
  38    10.00       9.943       9.883       9.824       9.749       9.664       9.565       9.467       9.318       9.096    
        8.902       8.763       8.651       8.539       8.384       8.165       7.932       7.677       7.365       7.197    
        7.114       6.985       6.867       6.798       6.672       6.453       6.085       5.745       5.590       5.455    
        5.299       5.097       4.882       4.693       4.456       4.197       4.009       3.784       3.393       2.963    
        2.654       2.401       2.183       1.959       1.723       1.437       1.155      0.8382      0.4142       0.000    
  39    10.00       9.927       9.867       9.813       9.741       9.643       9.537       9.434       9.293       9.112    
        8.958       8.851       8.721       8.560       8.314       8.030       7.767       7.464       7.250       7.149    
        7.010       6.859       6.771       6.703       6.578       6.284       5.928       5.737       5.599       5.461    
        5.285       5.097       4.891       4.702       4.525       4.313       4.065       3.793       3.408       3.007    
        2.682       2.421       2.249       2.061       1.795       1.513       1.226      0.8725      0.4088       0.000    
  40    10.00       9.918       9.860       9.805       9.729       9.627       9.524       9.422       9.296       9.144    
        9.016       8.919       8.746       8.480       8.164       7.879       7.601       7.346       7.196       7.059    
        6.896       6.768       6.699       6.607       6.441       6.179       5.949       5.763       5.611       5.469    
        5.297       5.097       4.904       4.748       4.592       4.379       4.093       3.808       3.417       2.988    
        2.683       2.476       2.287       2.127       1.847       1.538       1.276      0.8750      0.4073       0.000    
  41    10.00       9.925       9.858       9.791       9.708       9.628       9.541       9.445       9.320       9.180    
        9.057       8.932       8.697       8.373       8.049       7.784       7.513       7.274       7.123       6.971    
        6.807       6.698       6.617       6.508       6.340       6.150       5.998       5.820       5.631       5.465    
        5.301       5.122       4.939       4.803       4.639       4.426       4.140       3.747       3.299       2.968    
        2.747       2.547       2.352       2.128       1.837       1.541       1.317      0.9322      0.4227       0.000    
  42    10.00       9.924       9.847       9.788       9.728       9.653       9.560       9.450       9.343       9.233    
        9.069       8.846       8.571       8.262       7.960       7.720       7.454       7.224       7.060       6.887    
        6.735       6.638       6.547       6.449       6.302       6.173       6.047       5.844       5.633       5.484    
        5.352       5.157       4.961       4.830       4.677       4.451       4.099       3.636       3.226       2.980    
        2.814       2.635       2.386       2.088       1.809       1.578       1.345      0.9833      0.4851       0.000    
  43    10.00       9.917       9.852       9.801       9.753       9.680       9.588       9.483       9.361       9.185    
        8.966       8.735       8.479       8.157       7.888       7.665       7.426       7.193       6.985       6.824    
        6.689       6.591       6.516       6.437       6.314       6.183       6.054       5.844       5.661       5.553    
        5.392       5.182       4.993       4.859       4.681       4.387       3.981       3.543       3.244       3.056    
        2.878       2.673       2.367       2.062       1.815       1.592       1.391      0.9972      0.4557       0.000    
  44    10.00       9.917       9.860       9.814       9.755       9.700       9.623       9.480       9.295       9.089    
        8.905       8.672       8.362       8.093       7.879       7.623       7.361       7.111       6.905       6.764    
        6.667       6.585       6.510       6.430       6.324       6.190       6.017       5.844       5.722       5.593    
        5.448       5.265       5.050       4.845       4.628       4.299       3.874       3.513       3.282       3.100    
        2.921       2.677       2.382       2.118       1.854       1.614       1.369      0.9003      0.4140       0.000    
  45    10.00       9.926       9.873       9.813       9.755       9.707       9.579       9.407       9.219       9.042    
        8.890       8.576       8.255       8.059       7.828       7.542       7.256       7.026       6.860       6.751    
        6.677       6.600       6.519       6.424       6.307       6.176       6.030       5.898       5.791       5.656    
        5.489       5.300       5.078       4.819       4.560       4.207       3.808       3.524       3.348       3.160    
        2.922       2.643       2.390       2.149       1.915       1.676       1.278      0.8000      0.4026       0.000    
  46    10.00       9.940       9.883       9.813       9.746       9.650       9.510       9.379       9.221       9.032    
        8.779       8.480       8.222       7.974       7.727       7.450       7.185       7.015       6.880       6.775    
        6.701       6.626       6.522       6.405       6.292       6.182       6.067       5.946       5.838       5.719    
        5.569       5.369       5.117       4.810       4.441       4.074       3.779       3.578       3.395       3.199    
        2.917       2.620       2.368       2.177       1.954       1.643       1.190      0.7641      0.3767       0.000    
  47    10.00       9.951       9.897       9.826       9.713       9.586       9.466       9.363       9.218       8.967    
        8.663       8.390       8.165       7.958       7.696       7.395       7.161       7.000       6.891       6.804    
        6.723       6.635       6.526       6.403       6.294       6.207       6.113       5.994       5.869       5.753    
        5.622       5.454       5.119       4.689       4.329       4.066       3.819       3.646       3.484       3.213    
        2.869       2.555       2.327       2.195       1.948       1.567       1.125      0.7370      0.3724       0.000    
  48    10.00       9.956       9.900       9.795       9.678       9.568       9.448       9.344       9.196       8.913    
        8.581       8.352       8.169       7.915       7.609       7.338       7.162       7.000       6.892       6.823    
        6.741       6.635       6.518       6.405       6.316       6.247       6.163       6.031       5.887       5.762    
        5.624       5.422       5.074       4.717       4.396       4.105       3.885       3.708       3.500       3.157    
        2.787       2.545       2.363       2.130       1.806       1.468       1.089      0.7423      0.3930       0.000    
  49    10.00       9.953       9.869       9.767       9.679       9.561       9.444       9.334       9.148       8.847    
        8.552       8.333       8.103       7.846       7.615       7.363       7.118       6.968       6.902       6.837    
        6.759       6.638       6.502       6.404       6.336       6.285       6.188       6.036       5.884       5.771    
        5.622       5.356       5.049       4.797       4.527       4.207       3.922       3.703       3.459       3.091    
        2.793       2.581       2.330       1.994       1.707       1.402       1.071      0.7545      0.3842       0.000    
  50    10.00       9.941       9.848       9.755       9.684       9.574       9.444       9.304       9.103       8.865    
        8.566       8.272       8.033       7.828       7.643       7.360       7.082       6.968       6.910       6.847    
        6.772       6.635       6.490       6.402       6.347       6.301       6.192       6.029       5.884       5.768    
        5.605       5.327       5.091       4.874       4.582       4.263       3.974       3.684       3.333       3.007    
        2.850       2.626       2.260       1.923       1.682       1.392       1.104      0.7369      0.3027       0.000    

 HEAD WILL BE SAVED ON UNIT   51 AT END OF TIME STEP  20, STRESS PERIOD    2

 DRAWDOWN WILL BE SAVED ON UNIT   52 AT END OF TIME STEP  20, STRESS PERIOD    2
1
  VOLUMETRIC BUDGET FOR ENTIRE MODEL AT END OF TIME STEP 20 IN STRESS PERIOD   2
  ------------------------------------------------------------------------------

     CUMULATIVE VOLUMES      L**3       RATES FOR THIS TIME STEP      L**3/T
     ------------------                 ------------------------

           IN:                                      IN:
           ---                                      ---
             STORAGE =        9990.5840               STORAGE =         497.7672
       CONSTANT HEAD =       11347.1260         CONSTANT HEAD =         542.1129
               WELLS =           0.0000                 WELLS =           0.0000

            TOTAL IN =       21337.7109              TOTAL IN =        1039.8801

          OUT:                                     OUT:
          ----                                     ----
             STORAGE =       9.3745E-03               STORAGE =           0.0000
       CONSTANT HEAD =       11337.6992         CONSTANT HEAD =         539.8803
               WELLS =       10000.0000                 WELLS =         500.0000

           TOTAL OUT =       21337.7090             TOTAL OUT =        1039.8804

            IN - OUT =       1.9531E-03              IN - OUT =      -2.4414E-04

 PERCENT DISCREPANCY =           0.00     PERCENT DISCREPANCY =           0.00






          TIME SUMMARY AT END OF TIME STEP  20 IN STRESS PERIOD    2
                    SECONDS     MINUTES      HOURS       DAYS        YEARS
                    -----------------------------------------------------------
   TIME STEP LENGTH  86400.      1440.0      24.000      1.0000     2.73785E-03
 STRESS PERIOD TIME 1.72800E+06  28800.      480.00      20.000     5.47570E-02
         TOTAL TIME 1.81440E+06  30240.      504.00      21.000     5.74949E-02
1
 
 SOLVING FOR HEAD 

 OUTPUT CONTROL FOR STRESS PERIOD    2   TIME STEP  21
    SAVE HEAD FOR ALL LAYERS
    SAVE DRAWDOWN FOR ALL LAYERS
    SAVE BUDGET
    PRINT HEAD FOR ALL LAYERS
    PRINT BUDGET
 UBDSV1 SAVING "         STORAGE" ON UNIT  53 AT TIME STEP 21, STRESS PERIOD   2
 UBDSV2 SAVING "   CONSTANT HEAD" ON UNIT  53 AT TIME STEP 21, STRESS PERIOD   2
 UBDSV1 SAVING "FLOW RIGHT FACE " ON UNIT  53 AT TIME STEP 21, STRESS PERIOD   2
 UBDSV1 SAVING "FLOW FRONT FACE " ON UNIT  53 AT TIME STEP 21, STRESS PERIOD   2
1
              HEAD IN LAYER   1 AT END OF TIME STEP  21 IN STRESS PERIOD    2
  ---------------------------------------------------------------------------

            1           2           3           4           5           6           7           8           9          10
           11          12          13          14          15          16          17          18          19          20
           21          22          23          24          25          26          27          28          29          30
           31          32          33          34          35          36          37          38          39          40
           41          42          43          44          45          46          47          48          49          50
 ........................................................................................................................
   1    10.00       9.960       9.904       9.849       9.803       9.747       9.692       9.635       9.558       9.495    
        9.458       9.420       9.379       9.337       9.271       9.197       9.118       9.055       9.027       8.995    
        8.955       8.921       8.885       8.840       8.776       8.665       8.531       8.400       8.249       8.098    
        7.885       7.547       7.149       6.731       6.262       5.830       5.464       5.123       4.658       4.154    
        3.724       3.299       2.713       2.157       1.767       1.377       1.050      0.8387      0.5562       0.000    
   2    10.00       9.959       9.910       9.855       9.806       9.754       9.693       9.618       9.544       9.495    
        9.462       9.428       9.396       9.345       9.268       9.192       9.119       9.058       9.027       8.992    
        8.951       8.925       8.897       8.848       8.776       8.670       8.535       8.398       8.256       8.106    
        7.875       7.527       7.109       6.637       6.164       5.747       5.420       5.086       4.615       4.142    
        3.709       3.197       2.667       2.226       1.839       1.475       1.101      0.7966      0.4252       0.000    
   3    10.00       9.955       9.908       9.857       9.808       9.749       9.673       9.601       9.554       9.510    
        9.472       9.442       9.411       9.362       9.286       9.191       9.115       9.064       9.025       8.989    
        8.956       8.928       8.900       8.840       8.762       8.655       8.528       8.425       8.275       8.096    
        7.800       7.396       6.954       6.498       6.061       5.672       5.378       5.035       4.527       4.067    
        3.706       3.238       2.748       2.324       1.921       1.554       1.112      0.6835      0.3006       0.000    
   4    10.00       9.959       9.911       9.856       9.795       9.726       9.654       9.601       9.561       9.519    
        9.486       9.461       9.426       9.373       9.304       9.201       9.115       9.068       9.027       8.993    
        8.956       8.922       8.887       8.824       8.745       8.642       8.519       8.404       8.288       8.065    
        7.684       7.195       6.725       6.376       6.047       5.668       5.290       4.856       4.428       4.090    
        3.767       3.351       2.859       2.440       2.016       1.570       1.061      0.6071      0.2827       0.000    
   5    10.00       9.956       9.905       9.842       9.779       9.716       9.653       9.608       9.566       9.530    
        9.501       9.475       9.434       9.373       9.292       9.199       9.125       9.074       9.032       8.986    
        8.943       8.909       8.864       8.799       8.726       8.610       8.487       8.388       8.272       7.992    
        7.498       6.966       6.579       6.312       6.013       5.626       5.196       4.769       4.461       4.174    
        3.879       3.448       2.933       2.566       2.135       1.551      0.9652      0.5604      0.2818       0.000    
   6    10.00       9.946       9.885       9.836       9.777       9.711       9.658       9.617       9.574       9.541    
        9.514       9.482       9.430       9.359       9.290       9.213       9.134       9.071       9.018       8.966    
        8.928       8.892       8.851       8.783       8.675       8.564       8.472       8.365       8.174       7.776    
        7.234       6.757       6.461       6.258       6.014       5.590       5.123       4.777       4.550       4.296    
        4.006       3.614       3.102       2.643       2.109       1.483      0.8654      0.4927      0.2753       0.000    
   7    10.00       9.930       9.873       9.826       9.769       9.722       9.671       9.629       9.592       9.557    
        9.522       9.476       9.413       9.345       9.283       9.219       9.133       9.049       8.993       8.950    
        8.912       8.874       8.831       8.743       8.633       8.543       8.443       8.277       7.962       7.464    
        6.950       6.578       6.392       6.230       5.923       5.509       5.196       4.889       4.638       4.459    
        4.164       3.756       3.205       2.611       1.953       1.235      0.7252      0.5003      0.2533       0.000    
   8    10.00       9.926       9.873       9.822       9.771       9.730       9.686       9.645       9.610       9.577    
        9.526       9.460       9.394       9.335       9.276       9.199       9.098       9.019       8.977       8.935    
        8.892       8.858       8.792       8.699       8.602       8.497       8.314       8.055       7.633       7.205    
        6.817       6.516       6.370       6.174       5.832       5.510       5.248       5.021       4.814       4.599    
        4.291       3.786       3.149       2.472       1.723       1.115      0.7674      0.4907      0.2260       0.000    
   9    10.00       9.929       9.870       9.820       9.784       9.749       9.707       9.667       9.627       9.589    
        9.525       9.445       9.377       9.317       9.248       9.162       9.072       9.002       8.957       8.914    
        8.874       8.822       8.732       8.648       8.551       8.409       8.149       7.764       7.351       7.041    
        6.733       6.503       6.339       6.080       5.762       5.509       5.320       5.141       4.962       4.726    
        4.343       3.815       3.136       2.379       1.690       1.154      0.7827      0.4866      0.2412       0.000    
  10    10.00       9.928       9.868       9.827       9.795       9.761       9.724       9.689       9.644       9.584    
        9.507       9.427       9.362       9.297       9.225       9.127       9.036       8.980       8.939       8.895    
        8.855       8.773       8.676       8.585       8.456       8.252       7.877       7.458       7.124       6.889    
        6.698       6.504       6.290       6.023       5.746       5.547       5.398       5.248       5.046       4.771    
        4.358       3.779       3.053       2.376       1.830       1.322      0.8379      0.5165      0.2721       0.000    
  11    10.00       9.919       9.873       9.838       9.806       9.776       9.744       9.698       9.634       9.568    
        9.492       9.414       9.351       9.267       9.169       9.084       9.018       8.965       8.924       8.877    
        8.807       8.704       8.571       8.439       8.223       7.925       7.591       7.301       7.023       6.844    
        6.682       6.437       6.191       5.991       5.800       5.644       5.492       5.297       5.058       4.735    
        4.347       3.833       3.096       2.476       1.991       1.502      0.9647      0.5112      0.2052       0.000    
  12    10.00       9.926       9.880       9.844       9.817       9.786       9.751       9.690       9.615       9.547    
        9.476       9.400       9.317       9.216       9.136       9.064       8.995       8.950       8.900       8.830    
        8.701       8.530       8.348       8.155       7.890       7.659       7.468       7.178       6.939       6.787    
        6.612       6.388       6.182       6.008       5.875       5.733       5.549       5.327       5.039       4.699    
        4.315       3.811       3.133       2.579       2.137       1.609       1.014      0.4831      0.1607       0.000    
  13    10.00       9.942       9.900       9.861       9.827       9.792       9.740       9.666       9.589       9.523    
        9.449       9.373       9.288       9.185       9.095       9.022       8.974       8.918       8.850       8.698    
        8.470       8.263       8.063       7.823       7.613       7.500       7.273       7.008       6.874       6.740    
        6.547       6.346       6.191       6.058       5.943       5.811       5.598       5.318       5.033       4.679    
        4.295       3.780       3.080       2.561       2.152       1.573      0.9440      0.4368      0.1262       0.000    
  14    10.00       9.958       9.920       9.879       9.838       9.785       9.711       9.634       9.565       9.491    
        9.419       9.349       9.250       9.138       9.056       8.997       8.924       8.845       8.694       8.431    
        8.187       7.997       7.734       7.533       7.430       7.303       7.072       6.910       6.785       6.655    
        6.484       6.343       6.240       6.120       5.996       5.855       5.615       5.305       4.998       4.637    
        4.223       3.602       2.943       2.524       2.023       1.468      0.9315      0.3991      0.1027       0.000    
  15    10.00       9.967       9.929       9.888       9.841       9.762       9.672       9.605       9.537       9.466    
        9.411       9.333       9.204       9.084       9.011       8.916       8.820       8.720       8.472       8.162    
        7.954       7.687       7.440       7.356       7.286       7.127       6.937       6.779       6.683       6.582    
        6.464       6.371       6.282       6.178       6.043       5.868       5.589       5.237       4.914       4.580    
        4.132       3.526       2.954       2.389       1.784       1.288      0.8012      0.3519      0.1056       0.000    
  16    10.00       9.976       9.939       9.891       9.818       9.722       9.645       9.590       9.530       9.458    
        9.385       9.276       9.132       9.017       8.915       8.805       8.737       8.545       8.183       7.892    
        7.676       7.406       7.305       7.247       7.129       6.931       6.775       6.692       6.644       6.566    
        6.471       6.391       6.319       6.209       6.045       5.828       5.494       5.173       4.915       4.553    
        4.042       3.389       2.734       2.109       1.595       1.105      0.6829      0.3342      0.1127       0.000    
  17    10.00       9.976       9.937       9.875       9.786       9.690       9.625       9.576       9.510       9.431    
        9.315       9.178       9.050       8.926       8.801       8.695       8.538       8.216       7.870       7.659    
        7.443       7.266       7.185       7.069       6.885       6.733       6.684       6.659       6.621       6.545    
        6.466       6.399       6.332       6.231       6.005       5.706       5.417       5.185       4.936       4.480    
        3.799       3.137       2.514       1.901       1.364      0.8941      0.5725      0.2989      0.1228       0.000    
  18    10.00       9.970       9.926       9.851       9.741       9.665       9.614       9.548       9.474       9.367    
        9.228       9.108       8.980       8.817       8.655       8.481       8.250       7.915       7.648       7.458    
        7.276       7.124       7.001       6.837       6.706       6.659       6.641       6.626       6.584       6.522    
        6.463       6.403       6.323       6.159       5.924       5.665       5.414       5.204       4.858       4.251    
        3.558       2.856       2.194       1.693       1.265      0.8382      0.4917      0.2472      0.1185       0.000    
  19    10.00       9.964       9.915       9.807       9.698       9.653       9.598       9.518       9.428       9.314    
        9.188       9.076       8.894       8.650       8.456       8.275       7.989       7.674       7.487       7.338    
        7.147       6.964       6.829       6.699       6.630       6.608       6.596       6.570       6.530       6.494    
        6.453       6.394       6.278       6.112       5.904       5.649       5.416       5.116       4.532       3.910    
        3.354       2.631       2.004       1.607       1.183      0.7561      0.4439      0.2517      0.1289       0.000    
  20    10.00       9.956       9.874       9.764       9.685       9.637       9.578       9.493       9.393       9.291    
        9.163       8.993       8.724       8.480       8.305       8.077       7.787       7.610       7.438       7.228    
        7.017       6.851       6.710       6.615       6.565       6.537       6.505       6.491       6.469       6.454    
        6.427       6.369       6.243       6.075       5.858       5.630       5.340       4.801       4.177       3.685    
        3.086       2.423       1.954       1.571       1.143      0.6707      0.3875      0.2619      0.1350       0.000    
  21    10.00       9.927       9.839       9.748       9.671       9.621       9.558       9.458       9.360       9.264    
        9.095       8.839       8.563       8.376       8.178       7.935       7.716       7.546       7.336       7.112    
        6.907       6.744       6.619       6.520       6.453       6.403       6.386       6.390       6.386       6.388    
        6.381       6.314       6.179       6.009       5.784       5.531       5.085       4.523       4.029       3.433    
        2.868       2.347       1.952       1.564      0.9621      0.5425      0.3921      0.2958      0.1418       0.000    
  22    10.00       9.908       9.803       9.722       9.662       9.602       9.514       9.423       9.337       9.205    
        8.989       8.699       8.477       8.308       8.084       7.832       7.618       7.435       7.240       7.026    
        6.821       6.648       6.484       6.334       6.248       6.228       6.245       6.259       6.290       6.304    
        6.300       6.223       6.104       5.922       5.686       5.433       4.972       4.423       3.780       3.206    
        2.798       2.382       1.907       1.259      0.7492      0.5404      0.4108      0.2734      0.1011       0.000    
  23    10.00       9.881       9.780       9.717       9.653       9.565       9.469       9.402       9.294       9.129    
        8.877       8.627       8.467       8.255       7.961       7.706       7.535       7.384       7.201       6.970    
        6.754       6.552       6.317       6.040       5.837       5.881       6.014       6.101       6.174       6.217    
        6.212       6.141       6.019       5.851       5.624       5.333       4.865       4.190       3.549       3.145    
        2.769       2.246       1.567       1.013      0.7368      0.5508      0.3939      0.2323      9.2445E-02   0.000    
  24    10.00       9.864       9.791       9.715       9.625       9.534       9.461       9.386       9.282       9.064    
        8.825       8.640       8.458       8.174       7.848       7.663       7.518       7.370       7.161       6.943    
        6.751       6.496       6.120       5.595       4.951       5.224       5.624       5.900       6.054       6.123    
        6.130       6.065       5.955       5.770       5.526       5.170       4.586       3.953       3.472       3.050    
        2.591       2.009       1.404      0.9816      0.7378      0.5364      0.3592      0.2516      0.1235       0.000    
  25    10.00       9.880       9.805       9.711       9.617       9.533       9.460       9.391       9.235       9.022    
        8.838       8.649       8.410       8.094       7.852       7.688       7.525       7.347       7.156       6.969    
        6.749       6.505       5.970       4.966       3.164       4.523       5.263       5.697       5.953       6.065    
        6.072       6.014       5.893       5.650       5.331       4.869       4.332       3.836       3.421       2.926    
        2.372       1.818       1.309      0.9725      0.7646      0.5572      0.3784      0.2635      0.1640       0.000    
  26    10.00       9.896       9.824       9.725       9.624       9.548       9.470       9.367       9.212       9.063    
        8.890       8.630       8.335       8.078       7.897       7.738       7.550       7.331       7.145       6.989    
        6.808       6.570       6.112       5.382       4.568       4.933       5.389       5.713       5.946       6.050    
        6.034       5.965       5.797       5.519       5.176       4.740       4.153       3.687       3.302       2.708    
        2.084       1.600       1.296       1.062      0.8244      0.6015      0.4124      0.2862      0.1672       0.000    
  27    10.00       9.918       9.829       9.740       9.653       9.562       9.475       9.371       9.242       9.104    
        8.882       8.586       8.327       8.115       7.964       7.782       7.537       7.310       7.166       7.040    
        6.899       6.683       6.342       5.920       5.497       5.488       5.668       5.875       6.028       6.057    
        6.010       5.927       5.738       5.441       5.047       4.468       3.929       3.552       2.978       2.361    
        1.880       1.570       1.341       1.136      0.9013      0.6565      0.4480      0.3149      0.1987       0.000    
  28    10.00       9.924       9.851       9.770       9.684       9.588       9.491       9.389       9.276       9.113    
        8.850       8.591       8.365       8.158       7.998       7.817       7.618       7.405       7.208       7.080    
        6.969       6.817       6.602       6.306       6.058       5.920       5.962       6.078       6.109       6.078    
        5.999       5.883       5.656       5.294       4.790       4.208       3.757       3.239       2.650       2.216    
        1.876       1.613       1.389       1.175      0.9470      0.7163      0.5082      0.3586      0.2049       0.000    
  29    10.00       9.929       9.858       9.794       9.710       9.623       9.527       9.423       9.297       9.077    
        8.830       8.609       8.392       8.217       8.034       7.843       7.664       7.495       7.312       7.147    
        7.030       6.915       6.776       6.606       6.376       6.264       6.246       6.236       6.204       6.100    
        5.970       5.770       5.514       5.058       4.474       3.985       3.544       3.014       2.548       2.232    
        1.957       1.669       1.415       1.210       1.004      0.7575      0.5369      0.3746      0.2077       0.000    
  30    10.00       9.938       9.879       9.823       9.748       9.661       9.575       9.454       9.284       9.082    
        8.831       8.588       8.410       8.234       8.058       7.887       7.744       7.592       7.416       7.242    
        7.102       7.006       6.892       6.779       6.653       6.534       6.476       6.377       6.270       6.109    
        5.882       5.570       5.245       4.792       4.353       3.906       3.441       2.951       2.601       2.317    
        1.990       1.701       1.481       1.247       1.002      0.7837      0.5722      0.3978      0.2235       0.000    
  31    10.00       9.951       9.902       9.848       9.792       9.721       9.622       9.470       9.273       9.060    
        8.816       8.598       8.435       8.262       8.099       7.941       7.802       7.682       7.505       7.333    
        7.207       7.106       7.015       6.915       6.823       6.711       6.596       6.478       6.305       6.063    
        5.716       5.354       5.042       4.697       4.288       3.822       3.356       2.959       2.715       2.444    
        2.081       1.764       1.513       1.276       1.049      0.8242      0.6062      0.4186      0.2167       0.000    
  32    10.00       9.957       9.922       9.875       9.821       9.753       9.646       9.469       9.288       9.085    
        8.833       8.632       8.477       8.297       8.120       7.990       7.871       7.730       7.587       7.422    
        7.289       7.181       7.085       6.978       6.882       6.799       6.669       6.501       6.260       5.938    
        5.569       5.238       4.937       4.619       4.223       3.808       3.445       3.109       2.828       2.517    
        2.182       1.869       1.605       1.334       1.086      0.8960      0.6682      0.4106      0.1833       0.000    
  33    10.00       9.964       9.936       9.896       9.840       9.766       9.625       9.450       9.304       9.119    
        8.888       8.695       8.510       8.302       8.145       8.040       7.936       7.792       7.637       7.486    
        7.341       7.224       7.099       6.992       6.916       6.832       6.653       6.408       6.154       5.861    
        5.507       5.225       4.920       4.542       4.180       3.816       3.523       3.258       2.939       2.596    
        2.307       2.012       1.722       1.442       1.182      0.9697      0.7146      0.4124      0.1792       0.000    
  34    10.00       9.970       9.948       9.914       9.840       9.730       9.598       9.477       9.325       9.141    
        8.941       8.728       8.514       8.310       8.185       8.100       7.988       7.845       7.666       7.515    
        7.377       7.226       7.095       6.998       6.917       6.788       6.571       6.344       6.090       5.754    
        5.447       5.229       4.927       4.566       4.216       3.886       3.611       3.347       3.019       2.711    
        2.454       2.171       1.854       1.575       1.311       1.068      0.7640      0.4638      0.2432       0.000    
  35    10.00       9.975       9.948       9.898       9.806       9.698       9.603       9.497       9.372       9.170    
        8.947       8.728       8.509       8.345       8.238       8.148       8.022       7.867       7.686       7.507    
        7.337       7.191       7.059       6.968       6.879       6.749       6.524       6.263       5.969       5.626    
        5.402       5.169       4.873       4.612       4.323       3.981       3.681       3.462       3.155       2.828    
        2.580       2.290       1.973       1.698       1.424       1.158      0.8756      0.5803      0.2871       0.000    
  36    10.00       9.968       9.925       9.870       9.784       9.683       9.603       9.510       9.373       9.174    
        8.925       8.689       8.536       8.416       8.308       8.187       8.036       7.872       7.668       7.410    
        7.226       7.114       7.005       6.928       6.842       6.678       6.425       6.144       5.790       5.495    
        5.314       5.128       4.879       4.632       4.393       4.088       3.792       3.561       3.288       2.932    
        2.660       2.337       2.021       1.811       1.545       1.249      0.9658      0.6572      0.3215       0.000    
  37    10.00       9.951       9.904       9.848       9.764       9.675       9.583       9.493       9.365       9.130    
        8.868       8.690       8.602       8.484       8.346       8.220       8.021       7.812       7.535       7.265    
        7.160       7.065       6.960       6.873       6.768       6.565       6.314       5.942       5.628       5.447    
        5.296       5.104       4.862       4.670       4.427       4.141       3.910       3.688       3.382       2.991    
        2.635       2.332       2.112       1.895       1.628       1.347       1.064      0.7248      0.3980       0.000    
  38    10.00       9.943       9.883       9.824       9.749       9.664       9.565       9.466       9.317       9.095    
        8.899       8.760       8.647       8.535       8.379       8.160       7.927       7.672       7.360       7.192    
        7.108       6.980       6.863       6.793       6.667       6.450       6.083       5.744       5.589       5.455    
        5.299       5.097       4.882       4.693       4.456       4.197       4.009       3.784       3.393       2.962    
        2.654       2.401       2.183       1.959       1.723       1.437       1.155      0.8382      0.4142       0.000    
  39    10.00       9.927       9.867       9.813       9.741       9.643       9.537       9.434       9.292       9.110    
        8.956       8.849       8.718       8.556       8.311       8.027       7.764       7.461       7.246       7.146    
        7.007       6.855       6.768       6.699       6.575       6.282       5.927       5.736       5.598       5.461    
        5.285       5.096       4.891       4.702       4.524       4.313       4.065       3.793       3.408       3.007    
        2.682       2.421       2.249       2.061       1.795       1.513       1.226      0.8725      0.4088       0.000    
  40    10.00       9.918       9.860       9.805       9.729       9.627       9.524       9.421       9.296       9.143    
        9.015       8.917       8.744       8.478       8.162       7.877       7.599       7.344       7.194       7.057    
        6.893       6.766       6.696       6.604       6.439       6.178       5.948       5.763       5.611       5.468    
        5.297       5.097       4.904       4.748       4.592       4.379       4.093       3.808       3.417       2.988    
        2.683       2.476       2.287       2.127       1.847       1.538       1.276      0.8750      0.4073       0.000    
  41    10.00       9.925       9.858       9.791       9.708       9.627       9.541       9.445       9.320       9.179    
        9.056       8.931       8.696       8.372       8.048       7.783       7.512       7.272       7.122       6.969    
        6.805       6.696       6.615       6.507       6.339       6.149       5.998       5.820       5.631       5.465    
        5.301       5.122       4.938       4.803       4.639       4.426       4.140       3.747       3.299       2.968    
        2.747       2.547       2.352       2.128       1.837       1.541       1.317      0.9322      0.4227       0.000    
  42    10.00       9.924       9.847       9.788       9.728       9.653       9.559       9.450       9.342       9.233    
        9.068       8.845       8.571       8.261       7.959       7.719       7.453       7.223       7.058       6.886    
        6.734       6.637       6.546       6.448       6.301       6.173       6.046       5.844       5.632       5.484    
        5.352       5.156       4.961       4.830       4.677       4.451       4.099       3.636       3.226       2.980    
        2.814       2.635       2.386       2.088       1.809       1.578       1.345      0.9833      0.4851       0.000    
  43    10.00       9.917       9.852       9.801       9.753       9.680       9.588       9.483       9.360       9.185    
        8.966       8.735       8.479       8.156       7.887       7.665       7.426       7.192       6.984       6.823    
        6.688       6.590       6.515       6.436       6.313       6.182       6.054       5.844       5.661       5.552    
        5.392       5.181       4.993       4.858       4.681       4.387       3.981       3.543       3.244       3.056    
        2.878       2.673       2.367       2.062       1.815       1.592       1.391      0.9972      0.4557       0.000    
  44    10.00       9.917       9.860       9.814       9.755       9.700       9.623       9.480       9.295       9.089    
        8.905       8.672       8.361       8.092       7.879       7.622       7.360       7.110       6.905       6.764    
        6.666       6.584       6.510       6.429       6.324       6.190       6.017       5.844       5.721       5.592    
        5.448       5.265       5.050       4.845       4.628       4.299       3.874       3.513       3.282       3.100    
        2.921       2.677       2.382       2.118       1.854       1.614       1.369      0.9003      0.4140       0.000    
  45    10.00       9.926       9.873       9.813       9.755       9.707       9.579       9.407       9.218       9.041    
        8.889       8.576       8.255       8.059       7.827       7.542       7.256       7.026       6.860       6.750    
        6.676       6.600       6.519       6.424       6.307       6.176       6.030       5.898       5.790       5.656    
        5.489       5.300       5.078       4.819       4.560       4.207       3.808       3.524       3.348       3.160    
        2.922       2.643       2.390       2.149       1.915       1.676       1.278      0.8000      0.4026       0.000    
  46    10.00       9.940       9.883       9.813       9.746       9.650       9.510       9.379       9.221       9.032    
        8.778       8.480       8.222       7.974       7.726       7.450       7.184       7.015       6.879       6.775    
        6.700       6.626       6.522       6.404       6.292       6.181       6.067       5.946       5.838       5.719    
        5.569       5.369       5.117       4.810       4.441       4.074       3.779       3.578       3.395       3.199    
        2.917       2.620       2.368       2.177       1.954       1.643       1.190      0.7641      0.3767       0.000    
  47    10.00       9.951       9.897       9.826       9.713       9.586       9.466       9.363       9.217       8.967    
        8.663       8.389       8.165       7.958       7.695       7.395       7.161       7.000       6.891       6.803    
        6.723       6.635       6.526       6.403       6.293       6.207       6.113       5.994       5.869       5.753    
        5.622       5.454       5.119       4.689       4.329       4.066       3.819       3.646       3.484       3.213    
        2.869       2.555       2.327       2.195       1.948       1.567       1.125      0.7370      0.3724       0.000    
  48    10.00       9.956       9.900       9.795       9.678       9.568       9.448       9.344       9.196       8.913    
        8.581       8.352       8.169       7.915       7.609       7.337       7.162       7.000       6.892       6.823    
        6.741       6.635       6.518       6.405       6.315       6.247       6.163       6.031       5.887       5.761    
        5.624       5.422       5.074       4.717       4.396       4.105       3.885       3.708       3.500       3.157    
        2.787       2.545       2.363       2.130       1.806       1.468       1.089      0.7423      0.3930       0.000    
  49    10.00       9.953       9.869       9.767       9.679       9.561       9.444       9.334       9.148       8.847    
        8.552       8.333       8.103       7.846       7.615       7.363       7.118       6.967       6.901       6.837    
        6.759       6.637       6.502       6.404       6.336       6.285       6.188       6.036       5.884       5.771    
        5.622       5.356       5.049       4.797       4.527       4.207       3.922       3.703       3.459       3.091    
        2.793       2.581       2.330       1.994       1.707       1.402       1.071      0.7545      0.3842       0.000    
  50    10.00       9.941       9.848       9.755       9.684       9.574       9.444       9.304       9.103       8.865    
        8.566       8.272       8.033       7.828       7.643       7.360       7.081       6.967       6.909       6.847    
        6.772       6.635       6.490       6.401       6.347       6.300       6.192       6.029       5.884       5.768    
        5.605       5.327       5.090       4.874       4.582       4.263       3.974       3.684       3.333       3.007    
        2.850       2.626       2.260       1.923       1.682       1.392       1.104      0.7369      0.3027       0.000    

 HEAD WILL BE SAVED ON UNIT   51 AT END OF TIME STEP  21, STRESS PERIOD    2

 DRAWDOWN WILL BE SAVED ON UNIT   52 AT END OF TIME STEP  21, STRESS PERIOD    2
1
  VOLUMETRIC BUDGET FOR ENTIRE MODEL AT END OF TIME STEP 21 IN STRESS PERIOD   2
  ------------------------------------------------------------------------------

     CUMULATIVE VOLUMES      L**3       RATES FOR THIS TIME STEP      L**3/T
     ------------------                 ------------------------

           IN:                                      IN:
           ---                                      ---
             STORAGE =       10487.8652               STORAGE =         497.2814
       CONSTANT HEAD =       11889.7207         CONSTANT HEAD =         542.5948
               WELLS =           0.0000                 WELLS =           0.0000

            TOTAL IN =       22377.5859              TOTAL IN =        1039.8762

          OUT:                                     OUT:
          ----                                     ----
             STORAGE =       9.3745E-03               STORAGE =           0.0000
       CONSTANT HEAD =       11877.5752         CONSTANT HEAD =         539.8762
               WELLS =       10500.0000                 WELLS =         500.0000

           TOTAL OUT =       22377.5840             TOTAL OUT =        1039.8762

            IN - OUT =       1.9531E-03              IN - OUT =           0.0000

 PERCENT DISCREPANCY =           0.00     PERCENT DISCREPANCY =           0.00






          TIME SUMMARY AT END OF TIME STEP  21 IN STRESS PERIOD    2
                    SECONDS     MINUTES      HOURS       DAYS        YEARS
                    -----------------------------------------------------------
   TIME STEP LENGTH  86400.      1440.0      24.000      1.0000     2.73785E-03
 STRESS PERIOD TIME 1.81440E+06  30240.      504.00      21.000     5.74949E-02
         TOTAL TIME 1.90080E+06  31680.      528.00      22.000     6.02327E-02
1
 
 SOLVING FOR HEAD 

 OUTPUT CONTROL FOR STRESS PERIOD    2   TIME STEP  22
    SAVE HEAD FOR ALL LAYERS
    SAVE DRAWDOWN FOR ALL LAYERS
    SAVE BUDGET
    PRINT HEAD FOR ALL LAYERS
    PRINT BUDGET
 UBDSV1 SAVING "         STORAGE" ON UNIT  53 AT TIME STEP 22, STRESS PERIOD   2
 UBDSV2 SAVING "   CONSTANT HEAD" ON UNIT  53 AT TIME STEP 22, STRESS PERIOD   2
 UBDSV1 SAVING "FLOW RIGHT FACE " ON UNIT  53 AT TIME STEP 22, STRESS PERIOD   2
 UBDSV1 SAVING "FLOW FRONT FACE " ON UNIT  53 AT TIME STEP 22, STRESS PERIOD   2
1
              HEAD IN LAYER   1 AT END OF TIME STEP  22 IN STRESS PERIOD    2
  ---------------------------------------------------------------------------

            1           2           3           4           5           6           7           8           9          10
           11          12          13          14          15          16          17          18          19          20
           21          22          23          24          25          26          27          28          29          30
           31          32          33          34          35          36          37          38          39          40
           41          42          43          44          45          46          47          48          49          50
 ........................................................................................................................
   1    10.00       9.959       9.904       9.849       9.803       9.747       9.692       9.635       9.557       9.494    
        9.457       9.420       9.378       9.336       9.270       9.196       9.117       9.054       9.025       8.994    
        8.954       8.920       8.884       8.839       8.775       8.664       8.530       8.399       8.248       8.098    
        7.884       7.546       7.149       6.730       6.262       5.829       5.463       5.123       4.658       4.154    
        3.724       3.299       2.713       2.157       1.767       1.377       1.050      0.8387      0.5562       0.000    
   2    10.00       9.959       9.910       9.854       9.806       9.754       9.693       9.617       9.543       9.495    
        9.461       9.428       9.396       9.344       9.267       9.191       9.118       9.057       9.026       8.990    
        8.950       8.924       8.895       8.847       8.774       8.669       8.533       8.397       8.255       8.105    
        7.874       7.526       7.108       6.636       6.164       5.747       5.420       5.085       4.615       4.142    
        3.708       3.196       2.667       2.226       1.839       1.475       1.101      0.7966      0.4252       0.000    
   3    10.00       9.955       9.908       9.857       9.808       9.748       9.673       9.601       9.554       9.509    
        9.471       9.441       9.410       9.361       9.285       9.190       9.113       9.063       9.024       8.988    
        8.955       8.927       8.898       8.838       8.761       8.654       8.526       8.424       8.274       8.096    
        7.799       7.396       6.954       6.497       6.061       5.671       5.378       5.035       4.527       4.067    
        3.705       3.238       2.748       2.324       1.921       1.554       1.112      0.6835      0.3006       0.000    
   4    10.00       9.959       9.911       9.856       9.795       9.726       9.654       9.601       9.560       9.519    
        9.485       9.460       9.425       9.373       9.303       9.200       9.114       9.067       9.026       8.992    
        8.954       8.921       8.885       8.822       8.744       8.641       8.517       8.403       8.287       8.064    
        7.684       7.194       6.724       6.375       6.047       5.667       5.289       4.856       4.427       4.090    
        3.766       3.350       2.859       2.439       2.016       1.570       1.061      0.6071      0.2827       0.000    
   5    10.00       9.956       9.905       9.842       9.779       9.716       9.653       9.608       9.566       9.530    
        9.500       9.474       9.433       9.372       9.291       9.197       9.124       9.073       9.031       8.984    
        8.941       8.907       8.863       8.798       8.724       8.608       8.485       8.387       8.270       7.991    
        7.497       6.965       6.578       6.311       6.011       5.625       5.195       4.768       4.460       4.173    
        3.878       3.447       2.933       2.565       2.134       1.551      0.9652      0.5603      0.2818       0.000    
   6    10.00       9.945       9.885       9.836       9.777       9.711       9.657       9.617       9.574       9.541    
        9.513       9.481       9.429       9.358       9.289       9.212       9.133       9.070       9.017       8.964    
        8.926       8.890       8.849       8.781       8.673       8.563       8.471       8.364       8.172       7.775    
        7.232       6.755       6.459       6.256       6.012       5.589       5.121       4.776       4.549       4.294    
        4.006       3.614       3.101       2.643       2.109       1.483      0.8653      0.4927      0.2753       0.000    
   7    10.00       9.930       9.873       9.825       9.769       9.721       9.670       9.628       9.592       9.557    
        9.521       9.475       9.412       9.344       9.282       9.218       9.132       9.048       8.991       8.948    
        8.910       8.872       8.829       8.741       8.631       8.540       8.441       8.275       7.960       7.462    
        6.947       6.575       6.389       6.227       5.920       5.506       5.194       4.888       4.637       4.457    
        4.163       3.755       3.205       2.611       1.953       1.235      0.7251      0.5002      0.2533       0.000    
   8    10.00       9.926       9.873       9.822       9.771       9.729       9.686       9.645       9.610       9.576    
        9.525       9.459       9.393       9.334       9.275       9.198       9.096       9.017       8.974       8.933    
        8.889       8.856       8.789       8.697       8.600       8.494       8.311       8.052       7.630       7.201    
        6.813       6.512       6.366       6.171       5.829       5.507       5.245       5.019       4.812       4.597    
        4.290       3.785       3.149       2.472       1.723       1.115      0.7673      0.4906      0.2260       0.000    
   9    10.00       9.929       9.870       9.820       9.784       9.748       9.706       9.666       9.626       9.588    
        9.524       9.444       9.376       9.316       9.246       9.161       9.070       9.000       8.954       8.911    
        8.872       8.820       8.729       8.644       8.547       8.405       8.145       7.759       7.345       7.036    
        6.727       6.498       6.334       6.075       5.758       5.506       5.317       5.138       4.960       4.724    
        4.341       3.814       3.136       2.379       1.690       1.154      0.7827      0.4866      0.2412       0.000    
  10    10.00       9.928       9.868       9.827       9.795       9.761       9.724       9.689       9.643       9.583    
        9.507       9.426       9.361       9.295       9.223       9.125       9.034       8.977       8.936       8.893    
        8.852       8.770       8.673       8.581       8.452       8.247       7.870       7.451       7.116       6.881    
        6.691       6.498       6.284       6.018       5.741       5.543       5.394       5.245       5.044       4.769    
        4.357       3.778       3.053       2.376       1.830       1.322      0.8378      0.5165      0.2721       0.000    
  11    10.00       9.919       9.873       9.838       9.806       9.776       9.743       9.697       9.633       9.567    
        9.491       9.413       9.350       9.265       9.167       9.082       9.016       8.962       8.921       8.873    
        8.803       8.700       8.565       8.433       8.216       7.916       7.581       7.291       7.013       6.835    
        6.674       6.429       6.184       5.985       5.794       5.639       5.488       5.293       5.055       4.733    
        4.346       3.832       3.095       2.476       1.991       1.502      0.9646      0.5112      0.2052       0.000    
  12    10.00       9.926       9.880       9.844       9.817       9.786       9.750       9.689       9.614       9.546    
        9.475       9.398       9.315       9.214       9.134       9.061       8.992       8.946       8.896       8.826    
        8.696       8.524       8.339       8.145       7.879       7.646       7.456       7.166       6.928       6.777    
        6.602       6.379       6.174       6.000       5.868       5.727       5.544       5.323       5.036       4.697    
        4.313       3.810       3.133       2.579       2.137       1.609       1.014      0.4831      0.1606       0.000    
  13    10.00       9.942       9.900       9.861       9.827       9.791       9.740       9.665       9.588       9.522    
        9.448       9.372       9.286       9.183       9.091       9.019       8.970       8.914       8.846       8.692    
        8.462       8.253       8.051       7.809       7.598       7.484       7.257       6.993       6.860       6.727    
        6.535       6.334       6.180       6.049       5.935       5.804       5.592       5.314       5.030       4.677    
        4.293       3.779       3.080       2.561       2.151       1.573      0.9440      0.4368      0.1262       0.000    
  14    10.00       9.958       9.920       9.879       9.838       9.784       9.711       9.633       9.564       9.490    
        9.417       9.347       9.247       9.134       9.053       8.993       8.919       8.839       8.687       8.421    
        8.174       7.983       7.718       7.515       7.412       7.285       7.053       6.892       6.767       6.639    
        6.469       6.329       6.228       6.109       5.987       5.847       5.609       5.301       4.995       4.635    
        4.222       3.601       2.943       2.524       2.022       1.468      0.9315      0.3991      0.1027       0.000    
  15    10.00       9.967       9.929       9.888       9.841       9.762       9.671       9.604       9.536       9.465    
        9.410       9.330       9.201       9.080       9.006       8.910       8.813       8.712       8.461       8.147    
        7.938       7.669       7.419       7.335       7.266       7.106       6.916       6.759       6.663       6.564    
        6.447       6.356       6.268       6.166       6.033       5.859       5.583       5.233       4.911       4.577    
        4.130       3.525       2.953       2.389       1.784       1.288      0.8012      0.3519      0.1056       0.000    
  16    10.00       9.976       9.939       9.891       9.818       9.722       9.644       9.589       9.529       9.456    
        9.383       9.273       9.128       9.012       8.909       8.797       8.729       8.534       8.168       7.873    
        7.656       7.384       7.282       7.225       7.107       6.908       6.752       6.669       6.623       6.546    
        6.453       6.375       6.304       6.196       6.033       5.819       5.488       5.168       4.911       4.550    
        4.041       3.389       2.733       2.108       1.595       1.105      0.6829      0.3342      0.1127       0.000    
  17    10.00       9.976       9.937       9.875       9.786       9.689       9.625       9.575       9.509       9.429    
        9.312       9.174       9.044       8.920       8.793       8.686       8.526       8.200       7.850       7.637    
        7.419       7.242       7.161       7.045       6.860       6.707       6.659       6.635       6.598       6.525    
        6.447       6.382       6.316       6.217       5.994       5.698       5.411       5.180       4.933       4.478    
        3.798       3.136       2.513       1.901       1.364      0.8940      0.5725      0.2989      0.1228       0.000    
  18    10.00       9.970       9.926       9.851       9.741       9.664       9.613       9.547       9.473       9.365    
        9.225       9.103       8.973       8.809       8.644       8.469       8.234       7.895       7.625       7.433    
        7.250       7.098       6.975       6.811       6.679       6.632       6.615       6.600       6.560       6.500    
        6.442       6.384       6.306       6.145       5.912       5.656       5.407       5.199       4.854       4.250    
        3.557       2.856       2.194       1.693       1.265      0.8382      0.4917      0.2472      0.1185       0.000    
  19    10.00       9.964       9.914       9.807       9.698       9.653       9.597       9.516       9.426       9.311    
        9.184       9.071       8.887       8.639       8.443       8.259       7.970       7.651       7.462       7.312    
        7.120       6.936       6.801       6.670       6.602       6.581       6.569       6.544       6.505       6.470    
        6.431       6.374       6.261       6.097       5.893       5.640       5.410       5.112       4.530       3.909    
        3.354       2.631       2.003       1.607       1.183      0.7561      0.4439      0.2517      0.1289       0.000    
  20    10.00       9.956       9.873       9.764       9.684       9.636       9.577       9.491       9.391       9.288    
        9.158       8.987       8.714       8.467       8.289       8.058       7.765       7.586       7.412       7.201    
        6.989       6.822       6.681       6.586       6.536       6.509       6.477       6.464       6.442       6.428    
        6.403       6.347       6.225       6.060       5.846       5.621       5.334       4.798       4.175       3.684    
        3.086       2.423       1.954       1.571       1.143      0.6707      0.3875      0.2619      0.1350       0.000    
  21    10.00       9.927       9.839       9.748       9.670       9.620       9.557       9.457       9.358       9.261    
        9.090       8.831       8.551       8.362       8.161       7.915       7.692       7.521       7.310       7.084    
        6.878       6.714       6.589       6.491       6.423       6.374       6.356       6.361       6.358       6.361    
        6.355       6.291       6.161       5.994       5.773       5.523       5.080       4.521       4.027       3.432    
        2.868       2.347       1.952       1.564      0.9620      0.5425      0.3921      0.2958      0.1418       0.000    
  22    10.00       9.908       9.803       9.722       9.661       9.601       9.512       9.421       9.334       9.201    
        8.983       8.689       8.464       8.292       8.065       7.810       7.594       7.409       7.212       6.997    
        6.792       6.618       6.453       6.304       6.218       6.198       6.214       6.229       6.260       6.276    
        6.274       6.200       6.084       5.907       5.675       5.425       4.968       4.421       3.779       3.206    
        2.798       2.382       1.907       1.259      0.7492      0.5404      0.4108      0.2734      0.1011       0.000    
  23    10.00       9.881       9.780       9.716       9.652       9.564       9.468       9.400       9.291       9.125    
        8.869       8.616       8.453       8.239       7.941       7.683       7.510       7.358       7.173       6.941    
        6.724       6.522       6.287       6.009       5.805       5.849       5.983       6.070       6.144       6.187    
        6.185       6.118       6.000       5.836       5.613       5.325       4.861       4.188       3.548       3.145    
        2.769       2.245       1.567       1.013      0.7368      0.5508      0.3939      0.2323      9.2444E-02   0.000    
  24    10.00       9.864       9.791       9.715       9.625       9.533       9.459       9.384       9.279       9.058    
        8.817       8.629       8.445       8.157       7.827       7.639       7.493       7.344       7.133       6.914    
        6.722       6.465       6.089       5.563       4.917       5.190       5.591       5.867       6.023       6.093    
        6.103       6.041       5.935       5.755       5.514       5.162       4.583       3.952       3.471       3.050    
        2.591       2.009       1.404      0.9816      0.7378      0.5364      0.3592      0.2516      0.1235       0.000    
  25    10.00       9.880       9.805       9.710       9.616       9.532       9.458       9.389       9.231       9.016    
        8.830       8.639       8.396       8.076       7.831       7.665       7.500       7.321       7.128       6.940    
        6.719       6.475       5.938       4.933       3.129       4.488       5.228       5.663       5.921       6.034    
        6.045       5.990       5.874       5.636       5.321       4.863       4.329       3.835       3.420       2.926    
        2.372       1.818       1.309      0.9725      0.7646      0.5572      0.3784      0.2635      0.1640       0.000    
  26    10.00       9.896       9.824       9.724       9.623       9.546       9.468       9.365       9.208       9.058    
        8.882       8.619       8.320       8.060       7.876       7.716       7.526       7.305       7.118       6.961    
        6.778       6.539       6.080       5.349       4.533       4.898       5.353       5.678       5.913       6.020    
        6.008       5.943       5.779       5.506       5.167       4.734       4.150       3.686       3.302       2.708    
        2.084       1.599       1.296       1.062      0.8244      0.6015      0.4124      0.2862      0.1672       0.000    
  27    10.00       9.918       9.829       9.739       9.652       9.560       9.473       9.368       9.238       9.099    
        8.875       8.575       8.313       8.098       7.945       7.761       7.513       7.284       7.140       7.012    
        6.871       6.653       6.311       5.887       5.463       5.452       5.633       5.840       5.996       6.029    
        5.986       5.906       5.722       5.429       5.039       4.464       3.927       3.551       2.977       2.361    
        1.880       1.570       1.341       1.136      0.9013      0.6565      0.4480      0.3149      0.1987       0.000    
  28    10.00       9.923       9.851       9.769       9.683       9.586       9.489       9.387       9.273       9.108    
        8.843       8.581       8.351       8.142       7.979       7.797       7.596       7.380       7.182       7.052    
        6.941       6.788       6.572       6.274       6.025       5.885       5.927       6.046       6.079       6.052    
        5.976       5.863       5.642       5.285       4.785       4.205       3.755       3.239       2.650       2.216    
        1.876       1.613       1.389       1.175      0.9470      0.7163      0.5082      0.3586      0.2049       0.000    
  29    10.00       9.929       9.858       9.793       9.709       9.621       9.526       9.420       9.294       9.072    
        8.823       8.599       8.379       8.203       8.017       7.824       7.643       7.472       7.287       7.121    
        7.003       6.887       6.747       6.576       6.344       6.231       6.214       6.206       6.176       6.076    
        5.950       5.754       5.503       5.052       4.471       3.983       3.543       3.014       2.548       2.232    
        1.956       1.669       1.415       1.210       1.004      0.7575      0.5369      0.3746      0.2077       0.000    
  30    10.00       9.938       9.879       9.823       9.747       9.660       9.573       9.452       9.280       9.077    
        8.824       8.578       8.398       8.220       8.042       7.870       7.725       7.571       7.393       7.218    
        7.076       6.980       6.864       6.750       6.623       6.505       6.448       6.351       6.247       6.089    
        5.867       5.559       5.238       4.788       4.351       3.905       3.441       2.951       2.601       2.317    
        1.990       1.701       1.481       1.247       1.002      0.7837      0.5722      0.3978      0.2235       0.000    
  31    10.00       9.951       9.902       9.848       9.791       9.720       9.620       9.468       9.270       9.055    
        8.809       8.589       8.424       8.249       8.084       7.925       7.784       7.663       7.484       7.310    
        7.183       7.081       6.989       6.890       6.799       6.688       6.573       6.456       6.286       6.047    
        5.705       5.347       5.038       4.694       4.287       3.821       3.356       2.959       2.715       2.444    
        2.081       1.764       1.513       1.276       1.049      0.8242      0.6062      0.4186      0.2167       0.000    
  32    10.00       9.957       9.922       9.875       9.820       9.752       9.645       9.467       9.285       9.081    
        8.827       8.624       8.467       8.285       8.107       7.975       7.855       7.713       7.568       7.401    
        7.267       7.159       7.063       6.957       6.862       6.779       6.649       6.483       6.245       5.928    
        5.562       5.233       4.934       4.617       4.222       3.808       3.445       3.109       2.828       2.517    
        2.182       1.869       1.605       1.334       1.086      0.8960      0.6682      0.4106      0.1833       0.000    
  33    10.00       9.964       9.936       9.895       9.840       9.766       9.624       9.448       9.301       9.115    
        8.882       8.688       8.501       8.292       8.133       8.027       7.922       7.777       7.619       7.468    
        7.322       7.205       7.080       6.973       6.898       6.814       6.638       6.395       6.144       5.854    
        5.503       5.222       4.918       4.541       4.179       3.816       3.523       3.258       2.939       2.596    
        2.307       2.012       1.722       1.442       1.182      0.9697      0.7146      0.4124      0.1792       0.000    
  34    10.00       9.970       9.948       9.914       9.840       9.730       9.597       9.475       9.323       9.138    
        8.936       8.722       8.507       8.301       8.175       8.089       7.975       7.832       7.651       7.500    
        7.360       7.210       7.079       6.982       6.902       6.774       6.560       6.335       6.083       5.749    
        5.444       5.227       4.925       4.565       4.215       3.886       3.611       3.347       3.019       2.711    
        2.454       2.171       1.854       1.575       1.311       1.068      0.7640      0.4638      0.2432       0.000    
  35    10.00       9.975       9.948       9.898       9.805       9.697       9.602       9.496       9.371       9.168    
        8.943       8.723       8.503       8.338       8.229       8.138       8.011       7.856       7.674       7.494    
        7.324       7.178       7.046       6.956       6.868       6.738       6.516       6.256       5.964       5.623    
        5.400       5.168       4.873       4.612       4.323       3.981       3.681       3.462       3.155       2.828    
        2.580       2.290       1.973       1.698       1.424       1.158      0.8756      0.5803      0.2871       0.000    
  36    10.00       9.968       9.925       9.870       9.783       9.683       9.602       9.509       9.372       9.172    
        8.922       8.685       8.531       8.409       8.301       8.179       8.026       7.862       7.658       7.400    
        7.216       7.105       6.996       6.919       6.833       6.670       6.419       6.140       5.787       5.494    
        5.313       5.127       4.879       4.632       4.392       4.088       3.792       3.561       3.288       2.932    
        2.660       2.337       2.021       1.811       1.545       1.249      0.9658      0.6572      0.3215       0.000    
  37    10.00       9.951       9.904       9.848       9.763       9.675       9.583       9.492       9.364       9.128    
        8.865       8.686       8.598       8.479       8.339       8.213       8.014       7.805       7.528       7.258    
        7.152       7.058       6.952       6.866       6.761       6.559       6.310       5.940       5.627       5.446    
        5.296       5.103       4.862       4.670       4.427       4.141       3.910       3.688       3.382       2.991    
        2.635       2.332       2.112       1.895       1.628       1.347       1.064      0.7248      0.3980       0.000    
  38    10.00       9.943       9.883       9.824       9.749       9.663       9.564       9.466       9.316       9.093    
        8.897       8.757       8.643       8.530       8.373       8.154       7.922       7.667       7.355       7.187    
        7.103       6.974       6.858       6.788       6.663       6.446       6.081       5.743       5.588       5.454    
        5.298       5.097       4.882       4.692       4.456       4.197       4.009       3.784       3.393       2.962    
        2.654       2.401       2.183       1.959       1.723       1.437       1.155      0.8382      0.4142       0.000    
  39    10.00       9.926       9.867       9.813       9.740       9.642       9.536       9.433       9.291       9.109    
        8.954       8.846       8.715       8.553       8.307       8.023       7.760       7.458       7.243       7.142    
        7.003       6.852       6.765       6.696       6.572       6.280       5.926       5.735       5.598       5.460    
        5.284       5.096       4.891       4.702       4.524       4.313       4.065       3.793       3.408       3.007    
        2.682       2.421       2.249       2.061       1.795       1.513       1.226      0.8725      0.4088       0.000    
  40    10.00       9.918       9.860       9.805       9.729       9.627       9.523       9.421       9.295       9.141    
        9.013       8.915       8.742       8.475       8.160       7.875       7.597       7.342       7.191       7.054    
        6.891       6.763       6.694       6.602       6.438       6.177       5.948       5.762       5.610       5.468    
        5.296       5.096       4.904       4.748       4.592       4.379       4.092       3.808       3.417       2.988    
        2.683       2.476       2.287       2.127       1.847       1.538       1.276      0.8750      0.4073       0.000    
  41    10.00       9.925       9.857       9.791       9.708       9.627       9.540       9.444       9.319       9.178    
        9.055       8.929       8.694       8.370       8.046       7.781       7.510       7.271       7.120       6.967    
        6.804       6.694       6.613       6.506       6.338       6.149       5.997       5.819       5.630       5.464    
        5.301       5.122       4.938       4.803       4.638       4.426       4.140       3.747       3.299       2.968    
        2.747       2.547       2.352       2.128       1.837       1.541       1.317      0.9322      0.4227       0.000    
  42    10.00       9.924       9.847       9.788       9.727       9.653       9.559       9.449       9.341       9.232    
        9.067       8.844       8.570       8.260       7.959       7.718       7.452       7.222       7.057       6.885    
        6.733       6.636       6.545       6.448       6.300       6.172       6.046       5.843       5.632       5.484    
        5.351       5.156       4.961       4.830       4.677       4.450       4.099       3.636       3.226       2.980    
        2.814       2.635       2.386       2.088       1.809       1.578       1.345      0.9833      0.4851       0.000    
  43    10.00       9.917       9.852       9.801       9.753       9.680       9.587       9.482       9.360       9.184    
        8.965       8.734       8.478       8.156       7.887       7.664       7.425       7.191       6.983       6.822    
        6.687       6.589       6.514       6.436       6.313       6.182       6.053       5.843       5.660       5.552    
        5.391       5.181       4.993       4.858       4.680       4.387       3.981       3.543       3.244       3.056    
        2.878       2.673       2.367       2.062       1.815       1.592       1.391      0.9972      0.4557       0.000    
  44    10.00       9.916       9.860       9.814       9.755       9.700       9.623       9.480       9.295       9.088    
        8.904       8.671       8.361       8.092       7.878       7.622       7.360       7.110       6.904       6.763    
        6.666       6.584       6.509       6.429       6.323       6.189       6.017       5.843       5.721       5.592    
        5.448       5.265       5.049       4.844       4.628       4.299       3.874       3.513       3.282       3.100    
        2.921       2.677       2.382       2.118       1.854       1.614       1.369      0.9003      0.4140       0.000    
  45    10.00       9.926       9.873       9.812       9.755       9.707       9.579       9.407       9.218       9.041    
        8.889       8.576       8.254       8.059       7.827       7.541       7.256       7.025       6.860       6.750    
        6.676       6.599       6.518       6.423       6.306       6.175       6.030       5.898       5.790       5.656    
        5.489       5.300       5.078       4.819       4.560       4.207       3.808       3.524       3.348       3.160    
        2.922       2.643       2.390       2.149       1.915       1.676       1.278      0.8000      0.4026       0.000    
  46    10.00       9.940       9.883       9.812       9.746       9.650       9.510       9.379       9.221       9.031    
        8.778       8.479       8.222       7.974       7.726       7.449       7.184       7.014       6.879       6.774    
        6.700       6.625       6.521       6.404       6.291       6.181       6.067       5.946       5.837       5.719    
        5.569       5.369       5.117       4.810       4.440       4.074       3.779       3.578       3.395       3.199    
        2.917       2.620       2.368       2.177       1.954       1.643       1.190      0.7641      0.3767       0.000    
  47    10.00       9.951       9.897       9.826       9.713       9.586       9.466       9.363       9.217       8.967    
        8.663       8.389       8.165       7.958       7.695       7.394       7.160       7.000       6.891       6.803    
        6.723       6.634       6.526       6.402       6.293       6.207       6.112       5.993       5.869       5.753    
        5.621       5.454       5.119       4.689       4.329       4.066       3.819       3.646       3.484       3.213    
        2.869       2.555       2.327       2.195       1.948       1.567       1.125      0.7370      0.3724       0.000    
  48    10.00       9.956       9.900       9.795       9.678       9.568       9.448       9.343       9.196       8.912    
        8.581       8.352       8.168       7.914       7.608       7.337       7.161       6.999       6.891       6.823    
        6.740       6.635       6.517       6.405       6.315       6.247       6.163       6.031       5.886       5.761    
        5.624       5.422       5.074       4.717       4.396       4.105       3.885       3.708       3.500       3.157    
        2.787       2.545       2.363       2.130       1.806       1.468       1.089      0.7423      0.3930       0.000    
  49    10.00       9.953       9.869       9.767       9.679       9.561       9.444       9.334       9.148       8.847    
        8.551       8.332       8.103       7.845       7.615       7.362       7.118       6.967       6.901       6.837    
        6.759       6.637       6.501       6.403       6.335       6.284       6.188       6.036       5.884       5.771    
        5.621       5.356       5.049       4.797       4.527       4.207       3.922       3.703       3.459       3.091    
        2.793       2.581       2.330       1.994       1.707       1.402       1.071      0.7545      0.3842       0.000    
  50    10.00       9.941       9.848       9.755       9.684       9.574       9.444       9.304       9.103       8.865    
        8.566       8.272       8.033       7.828       7.643       7.360       7.081       6.967       6.909       6.847    
        6.772       6.635       6.490       6.401       6.347       6.300       6.192       6.029       5.884       5.768    
        5.605       5.327       5.090       4.874       4.582       4.263       3.974       3.684       3.333       3.007    
        2.850       2.626       2.260       1.923       1.682       1.392       1.104      0.7369      0.3027       0.000    

 HEAD WILL BE SAVED ON UNIT   51 AT END OF TIME STEP  22, STRESS PERIOD    2

 DRAWDOWN WILL BE SAVED ON UNIT   52 AT END OF TIME STEP  22, STRESS PERIOD    2
1
  VOLUMETRIC BUDGET FOR ENTIRE MODEL AT END OF TIME STEP 22 IN STRESS PERIOD   2
  ------------------------------------------------------------------------------

     CUMULATIVE VOLUMES      L**3       RATES FOR THIS TIME STEP      L**3/T
     ------------------                 ------------------------

           IN:                                      IN:
           ---                                      ---
             STORAGE =       10984.5996               STORAGE =         496.7341
       CONSTANT HEAD =       12432.8574         CONSTANT HEAD =         543.1368
               WELLS =           0.0000                 WELLS =           0.0000

            TOTAL IN =       23417.4570              TOTAL IN =        1039.8708

          OUT:                                     OUT:
          ----                                     ----
             STORAGE =       9.3745E-03               STORAGE =           0.0000
       CONSTANT HEAD =       12417.4463         CONSTANT HEAD =         539.8711
               WELLS =       11000.0000                 WELLS =         500.0000

           TOTAL OUT =       23417.4551             TOTAL OUT =        1039.8711

            IN - OUT =       1.9531E-03              IN - OUT =      -2.4414E-04

 PERCENT DISCREPANCY =           0.00     PERCENT DISCREPANCY =           0.00






          TIME SUMMARY AT END OF TIME STEP  22 IN STRESS PERIOD    2
                    SECONDS     MINUTES      HOURS       DAYS        YEARS
                    -----------------------------------------------------------
   TIME STEP LENGTH  86400.      1440.0      24.000      1.0000     2.73785E-03
 STRESS PERIOD TIME 1.90080E+06  31680.      528.00      22.000     6.02327E-02
         TOTAL TIME 1.98720E+06  33120.      552.00      23.000     6.29706E-02
1
 
 SOLVING FOR HEAD 

 OUTPUT CONTROL FOR STRESS PERIOD    2   TIME STEP  23
    SAVE HEAD FOR ALL LAYERS
    SAVE DRAWDOWN FOR ALL LAYERS
    SAVE BUDGET
    PRINT HEAD FOR ALL LAYERS
    PRINT BUDGET
 UBDSV1 SAVING "         STORAGE" ON UNIT  53 AT TIME STEP 23, STRESS PERIOD   2
 UBDSV2 SAVING "   CONSTANT HEAD" ON UNIT  53 AT TIME STEP 23, STRESS PERIOD   2
 UBDSV1 SAVING "FLOW RIGHT FACE " ON UNIT  53 AT TIME STEP 23, STRESS PERIOD   2
 UBDSV1 SAVING "FLOW FRONT FACE " ON UNIT  53 AT TIME STEP 23, STRESS PERIOD   2
1
              HEAD IN LAYER   1 AT END OF TIME STEP  23 IN STRESS PERIOD    2
  ---------------------------------------------------------------------------

            1           2           3           4           5           6           7           8           9          10
           11          12          13          14          15          16          17          18          19          20
           21          22          23          24          25          26          27          28          29          30
           31          32          33          34          35          36          37          38          39          40
           41          42          43          44          45          46          47          48          49          50
 ........................................................................................................................
   1    10.00       9.959       9.904       9.849       9.803       9.747       9.692       9.634       9.557       9.494    
        9.457       9.419       9.377       9.336       9.269       9.195       9.115       9.052       9.024       8.992    
        8.953       8.918       8.883       8.837       8.774       8.662       8.528       8.397       8.247       8.097    
        7.884       7.546       7.148       6.730       6.262       5.829       5.463       5.123       4.658       4.154    
        3.724       3.299       2.713       2.157       1.767       1.377       1.050      0.8387      0.5561       0.000    
   2    10.00       9.959       9.910       9.854       9.805       9.753       9.692       9.617       9.543       9.494    
        9.461       9.427       9.395       9.343       9.266       9.190       9.117       9.056       9.025       8.989    
        8.949       8.922       8.894       8.846       8.773       8.667       8.532       8.396       8.254       8.104    
        7.874       7.526       7.108       6.636       6.163       5.747       5.419       5.085       4.614       4.142    
        3.708       3.196       2.667       2.226       1.839       1.475       1.101      0.7965      0.4252       0.000    
   3    10.00       9.955       9.908       9.857       9.808       9.748       9.672       9.601       9.553       9.509    
        9.470       9.441       9.409       9.360       9.284       9.189       9.112       9.061       9.023       8.987    
        8.953       8.925       8.897       8.837       8.759       8.653       8.525       8.423       8.273       8.095    
        7.798       7.395       6.953       6.497       6.060       5.671       5.378       5.035       4.527       4.067    
        3.705       3.238       2.748       2.324       1.921       1.554       1.111      0.6835      0.3006       0.000    
   4    10.00       9.959       9.911       9.855       9.794       9.726       9.653       9.600       9.560       9.518    
        9.484       9.460       9.424       9.372       9.302       9.199       9.113       9.066       9.024       8.990    
        8.953       8.919       8.884       8.821       8.742       8.640       8.516       8.401       8.286       8.063    
        7.683       7.193       6.723       6.374       6.046       5.666       5.289       4.855       4.427       4.089    
        3.766       3.350       2.858       2.439       2.016       1.570       1.061      0.6070      0.2827       0.000    
   5    10.00       9.956       9.905       9.842       9.779       9.715       9.652       9.607       9.565       9.529    
        9.499       9.473       9.432       9.371       9.290       9.196       9.123       9.071       9.029       8.983    
        8.940       8.906       8.861       8.796       8.722       8.606       8.484       8.385       8.269       7.989    
        7.495       6.963       6.576       6.310       6.010       5.624       5.194       4.767       4.459       4.172    
        3.878       3.447       2.933       2.565       2.134       1.551      0.9651      0.5603      0.2818       0.000    
   6    10.00       9.945       9.885       9.836       9.776       9.710       9.657       9.616       9.573       9.540    
        9.513       9.480       9.428       9.357       9.288       9.210       9.131       9.068       9.015       8.963    
        8.924       8.888       8.847       8.779       8.671       8.561       8.469       8.362       8.170       7.773    
        7.230       6.753       6.457       6.253       6.010       5.587       5.120       4.774       4.547       4.293    
        4.005       3.613       3.101       2.642       2.108       1.483      0.8653      0.4927      0.2752       0.000    
   7    10.00       9.930       9.873       9.825       9.768       9.721       9.670       9.628       9.591       9.556    
        9.520       9.474       9.412       9.343       9.280       9.217       9.130       9.046       8.989       8.946    
        8.908       8.870       8.827       8.738       8.628       8.538       8.439       8.273       7.957       7.459    
        6.944       6.572       6.385       6.224       5.918       5.504       5.192       4.886       4.635       4.456    
        4.162       3.754       3.204       2.610       1.953       1.235      0.7251      0.5002      0.2533       0.000    
   8    10.00       9.925       9.873       9.822       9.771       9.729       9.685       9.644       9.609       9.576    
        9.525       9.458       9.392       9.333       9.274       9.196       9.095       9.015       8.972       8.931    
        8.887       8.854       8.787       8.694       8.597       8.491       8.308       8.048       7.626       7.197    
        6.809       6.508       6.362       6.167       5.825       5.503       5.242       5.016       4.810       4.595    
        4.289       3.785       3.149       2.472       1.723       1.115      0.7673      0.4906      0.2260       0.000    
   9    10.00       9.929       9.870       9.820       9.783       9.748       9.706       9.666       9.626       9.587    
        9.523       9.443       9.375       9.315       9.245       9.159       9.068       8.997       8.952       8.909    
        8.869       8.817       8.726       8.641       8.544       8.401       8.141       7.754       7.339       7.030    
        6.721       6.493       6.329       6.071       5.754       5.502       5.313       5.135       4.957       4.722    
        4.340       3.813       3.135       2.379       1.689       1.154      0.7826      0.4866      0.2412       0.000    
  10    10.00       9.928       9.868       9.827       9.795       9.760       9.724       9.688       9.643       9.583    
        9.506       9.425       9.360       9.294       9.221       9.123       9.031       8.975       8.933       8.890    
        8.849       8.766       8.669       8.577       8.447       8.241       7.864       7.443       7.109       6.874    
        6.684       6.491       6.278       6.012       5.736       5.538       5.390       5.241       5.041       4.767    
        4.356       3.777       3.052       2.376       1.830       1.322      0.8378      0.5165      0.2721       0.000    
  11    10.00       9.919       9.872       9.838       9.806       9.776       9.743       9.697       9.633       9.566    
        9.490       9.411       9.348       9.263       9.165       9.079       9.013       8.959       8.918       8.870    
        8.799       8.695       8.560       8.427       8.208       7.907       7.571       7.282       7.004       6.826    
        6.665       6.421       6.176       5.978       5.787       5.633       5.483       5.290       5.052       4.731    
        4.344       3.831       3.095       2.476       1.991       1.502      0.9646      0.5112      0.2052       0.000    
  12    10.00       9.926       9.880       9.844       9.817       9.786       9.750       9.688       9.613       9.546    
        9.474       9.397       9.314       9.211       9.131       9.058       8.989       8.943       8.893       8.822    
        8.691       8.517       8.331       8.136       7.867       7.634       7.444       7.153       6.916       6.766    
        6.592       6.369       6.165       5.992       5.861       5.720       5.539       5.319       5.033       4.695    
        4.312       3.809       3.133       2.578       2.137       1.609       1.014      0.4831      0.1606       0.000    
  13    10.00       9.942       9.900       9.861       9.826       9.791       9.739       9.665       9.587       9.521    
        9.446       9.370       9.284       9.180       9.088       9.015       8.966       8.910       8.841       8.686    
        8.453       8.242       8.039       7.795       7.582       7.469       7.242       6.977       6.845       6.713    
        6.522       6.323       6.170       6.040       5.927       5.797       5.586       5.309       5.026       4.675    
        4.292       3.778       3.079       2.561       2.151       1.573      0.9440      0.4368      0.1262       0.000    
  14    10.00       9.958       9.920       9.879       9.838       9.784       9.710       9.632       9.563       9.489    
        9.415       9.345       9.245       9.131       9.049       8.989       8.914       8.834       8.680       8.411    
        8.161       7.969       7.701       7.497       7.394       7.267       7.035       6.874       6.750       6.622    
        6.454       6.316       6.215       6.099       5.978       5.839       5.602       5.296       4.991       4.633    
        4.220       3.600       2.942       2.523       2.022       1.468      0.9315      0.3991      0.1027       0.000    
  15    10.00       9.967       9.929       9.888       9.841       9.761       9.671       9.603       9.535       9.463    
        9.408       9.328       9.198       9.075       9.001       8.904       8.806       8.705       8.450       8.133    
        7.922       7.650       7.399       7.315       7.246       7.086       6.896       6.738       6.644       6.546    
        6.430       6.341       6.255       6.154       6.022       5.850       5.576       5.228       4.907       4.575    
        4.129       3.524       2.953       2.389       1.784       1.288      0.8012      0.3519      0.1056       0.000    
  16    10.00       9.976       9.939       9.891       9.818       9.721       9.644       9.588       9.528       9.455    
        9.381       9.270       9.123       9.007       8.902       8.790       8.721       8.524       8.153       7.855    
        7.636       7.362       7.260       7.203       7.084       6.885       6.729       6.647       6.602       6.527    
        6.435       6.359       6.289       6.182       6.022       5.810       5.482       5.164       4.908       4.548    
        4.039       3.388       2.733       2.108       1.595       1.105      0.6829      0.3342      0.1127       0.000    
  17    10.00       9.976       9.937       9.874       9.785       9.689       9.624       9.574       9.507       9.428    
        9.309       9.170       9.039       8.913       8.785       8.677       8.515       8.185       7.830       7.616    
        7.396       7.218       7.137       7.020       6.835       6.682       6.634       6.611       6.576       6.504    
        6.428       6.364       6.300       6.203       5.982       5.689       5.404       5.175       4.929       4.476    
        3.797       3.136       2.513       1.901       1.364      0.8940      0.5725      0.2989      0.1228       0.000    
  18    10.00       9.970       9.926       9.851       9.740       9.663       9.612       9.546       9.471       9.362    
        9.221       9.098       8.967       8.801       8.634       8.456       8.218       7.875       7.602       7.409    
        7.225       7.072       6.949       6.784       6.653       6.606       6.589       6.576       6.536       6.478    
        6.422       6.366       6.289       6.131       5.901       5.648       5.401       5.194       4.850       4.248    
        3.556       2.855       2.194       1.693       1.265      0.8382      0.4917      0.2472      0.1185       0.000    
  19    10.00       9.964       9.914       9.807       9.697       9.652       9.597       9.515       9.424       9.308    
        9.180       9.065       8.879       8.629       8.429       8.243       7.950       7.628       7.438       7.287    
        7.094       6.909       6.773       6.643       6.575       6.554       6.543       6.518       6.480       6.447    
        6.409       6.354       6.243       6.083       5.881       5.632       5.403       5.107       4.527       3.907    
        3.353       2.631       2.003       1.607       1.183      0.7561      0.4439      0.2517      0.1289       0.000    
  20    10.00       9.956       9.873       9.763       9.684       9.636       9.576       9.490       9.389       9.285    
        9.154       8.981       8.704       8.454       8.274       8.040       7.743       7.563       7.387       7.175    
        6.961       6.794       6.653       6.558       6.508       6.481       6.450       6.437       6.415       6.403    
        6.379       6.326       6.207       6.045       5.835       5.612       5.327       4.794       4.173       3.683    
        3.085       2.423       1.954       1.571       1.143      0.6707      0.3875      0.2619      0.1350       0.000    
  21    10.00       9.927       9.839       9.747       9.670       9.619       9.555       9.455       9.356       9.258    
        9.085       8.822       8.539       8.347       8.143       7.894       7.670       7.497       7.284       7.057    
        6.850       6.686       6.561       6.462       6.395       6.345       6.328       6.333       6.330       6.334    
        6.330       6.269       6.142       5.979       5.762       5.514       5.075       4.518       4.026       3.431    
        2.867       2.347       1.952       1.564      0.9620      0.5425      0.3921      0.2958      0.1418       0.000    
  22    10.00       9.907       9.803       9.721       9.660       9.600       9.511       9.419       9.332       9.197    
        8.977       8.679       8.451       8.277       8.047       7.789       7.570       7.383       7.186       6.970    
        6.763       6.589       6.424       6.274       6.188       6.169       6.185       6.200       6.232       6.248    
        6.248       6.177       6.065       5.892       5.664       5.416       4.963       4.419       3.778       3.205    
        2.798       2.382       1.907       1.259      0.7492      0.5404      0.4108      0.2734      0.1011       0.000    
  23    10.00       9.881       9.779       9.716       9.652       9.563       9.466       9.398       9.288       9.120    
        8.862       8.605       8.440       8.222       7.921       7.660       7.485       7.332       7.146       6.913    
        6.695       6.492       6.256       5.978       5.775       5.818       5.952       6.040       6.114       6.159    
        6.158       6.094       5.980       5.820       5.601       5.317       4.856       4.186       3.547       3.144    
        2.769       2.245       1.567       1.013      0.7368      0.5508      0.3939      0.2323      9.2444E-02   0.000    
  24    10.00       9.863       9.790       9.714       9.624       9.532       9.458       9.381       9.276       9.053    
        8.809       8.618       8.432       8.140       7.806       7.616       7.469       7.318       7.106       6.886    
        6.693       6.436       6.058       5.531       4.885       5.158       5.559       5.835       5.992       6.064    
        6.076       6.018       5.916       5.739       5.503       5.155       4.579       3.950       3.470       3.050    
        2.591       2.009       1.404      0.9816      0.7378      0.5364      0.3592      0.2516      0.1235       0.000    
  25    10.00       9.879       9.805       9.709       9.615       9.530       9.456       9.386       9.228       9.010    
        8.821       8.628       8.382       8.058       7.810       7.642       7.476       7.295       7.101       6.912    
        6.690       6.445       5.907       4.900       3.095       4.455       5.194       5.630       5.889       6.005    
        6.019       5.967       5.854       5.621       5.311       4.856       4.326       3.833       3.419       2.926    
        2.372       1.818       1.309      0.9725      0.7645      0.5572      0.3784      0.2635      0.1640       0.000    
  26    10.00       9.896       9.824       9.723       9.622       9.545       9.466       9.362       9.204       9.052    
        8.875       8.608       8.306       8.043       7.856       7.694       7.502       7.279       7.091       6.933    
        6.750       6.510       6.050       5.316       4.499       4.864       5.318       5.644       5.881       5.992    
        5.983       5.920       5.761       5.493       5.158       4.728       4.148       3.684       3.301       2.707    
        2.084       1.599       1.296       1.062      0.8244      0.6015      0.4124      0.2862      0.1672       0.000    
  27    10.00       9.917       9.828       9.738       9.651       9.559       9.471       9.365       9.234       9.094    
        8.867       8.564       8.299       8.081       7.926       7.740       7.489       7.258       7.113       6.985    
        6.843       6.625       6.281       5.856       5.429       5.418       5.598       5.806       5.965       6.002    
        5.962       5.884       5.705       5.417       5.031       4.460       3.925       3.549       2.977       2.360    
        1.880       1.570       1.341       1.136      0.9013      0.6565      0.4480      0.3149      0.1987       0.000    
  28    10.00       9.923       9.850       9.768       9.682       9.585       9.486       9.384       9.269       9.103    
        8.835       8.570       8.338       8.126       7.961       7.777       7.574       7.356       7.156       7.026    
        6.914       6.760       6.543       6.243       5.993       5.852       5.894       6.014       6.050       6.026    
        5.954       5.844       5.627       5.275       4.779       4.202       3.754       3.238       2.650       2.216    
        1.876       1.613       1.389       1.175      0.9470      0.7163      0.5082      0.3586      0.2049       0.000    
  29    10.00       9.929       9.857       9.793       9.708       9.620       9.524       9.417       9.290       9.066    
        8.815       8.588       8.367       8.188       8.000       7.805       7.623       7.450       7.263       7.095    
        6.977       6.860       6.719       6.546       6.313       6.200       6.183       6.176       6.149       6.053    
        5.930       5.738       5.491       5.045       4.468       3.981       3.542       3.013       2.547       2.232    
        1.956       1.669       1.415       1.210       1.004      0.7575      0.5369      0.3746      0.2077       0.000    
  30    10.00       9.938       9.879       9.822       9.746       9.658       9.571       9.450       9.277       9.072    
        8.816       8.568       8.386       8.206       8.026       7.852       7.706       7.550       7.370       7.193    
        7.051       6.954       6.837       6.722       6.595       6.478       6.422       6.325       6.224       6.070    
        5.851       5.548       5.230       4.784       4.349       3.904       3.440       2.950       2.601       2.317    
        1.990       1.701       1.481       1.247       1.002      0.7837      0.5722      0.3978      0.2235       0.000    
  31    10.00       9.951       9.902       9.847       9.790       9.719       9.619       9.466       9.267       9.050    
        8.802       8.580       8.413       8.237       8.070       7.909       7.766       7.644       7.463       7.288    
        7.160       7.057       6.965       6.865       6.776       6.665       6.551       6.435       6.266       6.032    
        5.695       5.340       5.033       4.691       4.285       3.820       3.356       2.959       2.715       2.444    
        2.080       1.764       1.513       1.276       1.049      0.8242      0.6062      0.4186      0.2167       0.000    
  32    10.00       9.957       9.922       9.874       9.820       9.752       9.643       9.465       9.282       9.076    
        8.820       8.615       8.458       8.274       8.094       7.961       7.839       7.695       7.549       7.381    
        7.246       7.137       7.041       6.937       6.842       6.760       6.629       6.465       6.231       5.917    
        5.555       5.228       4.931       4.615       4.221       3.807       3.444       3.108       2.828       2.517    
        2.181       1.869       1.605       1.334       1.086      0.8960      0.6682      0.4106      0.1833       0.000    
  33    10.00       9.964       9.936       9.895       9.839       9.765       9.623       9.446       9.299       9.111    
        8.877       8.681       8.492       8.282       8.121       8.014       7.908       7.761       7.602       7.450    
        7.302       7.185       7.061       6.955       6.880       6.797       6.622       6.382       6.134       5.847    
        5.498       5.219       4.916       4.540       4.178       3.816       3.523       3.258       2.939       2.596    
        2.307       2.012       1.722       1.442       1.182      0.9697      0.7146      0.4124      0.1792       0.000    
  34    10.00       9.970       9.948       9.913       9.839       9.729       9.596       9.474       9.321       9.135    
        8.932       8.716       8.499       8.292       8.164       8.077       7.962       7.818       7.636       7.484    
        7.344       7.193       7.063       6.966       6.886       6.759       6.548       6.325       6.076       5.744    
        5.441       5.224       4.924       4.565       4.215       3.885       3.610       3.347       3.019       2.711    
        2.454       2.171       1.854       1.575       1.311       1.068      0.7640      0.4638      0.2432       0.000    
  35    10.00       9.975       9.948       9.897       9.805       9.697       9.601       9.494       9.369       9.165    
        8.939       8.718       8.496       8.330       8.220       8.128       8.000       7.844       7.661       7.480    
        7.311       7.166       7.034       6.943       6.856       6.727       6.507       6.249       5.959       5.620    
        5.398       5.167       4.872       4.611       4.323       3.981       3.681       3.462       3.155       2.828    
        2.580       2.290       1.973       1.698       1.424       1.158      0.8756      0.5803      0.2871       0.000    
  36    10.00       9.968       9.925       9.869       9.783       9.682       9.602       9.508       9.370       9.169    
        8.919       8.680       8.525       8.403       8.293       8.170       8.017       7.853       7.648       7.390    
        7.207       7.095       6.986       6.909       6.824       6.662       6.413       6.135       5.785       5.492    
        5.311       5.126       4.878       4.632       4.392       4.088       3.792       3.561       3.288       2.932    
        2.660       2.337       2.021       1.811       1.545       1.249      0.9658      0.6572      0.3215       0.000    
  37    10.00       9.951       9.904       9.848       9.763       9.674       9.582       9.491       9.362       9.126    
        8.862       8.682       8.593       8.473       8.333       8.206       8.007       7.797       7.520       7.251    
        7.145       7.050       6.945       6.858       6.754       6.553       6.305       5.937       5.626       5.445    
        5.295       5.102       4.861       4.669       4.427       4.141       3.910       3.688       3.382       2.991    
        2.635       2.332       2.112       1.895       1.628       1.347       1.064      0.7248      0.3980       0.000    
  38    10.00       9.943       9.882       9.823       9.748       9.663       9.564       9.465       9.315       9.091    
        8.894       8.754       8.639       8.525       8.368       8.149       7.916       7.661       7.350       7.181    
        7.097       6.969       6.852       6.783       6.658       6.442       6.079       5.742       5.587       5.453    
        5.298       5.096       4.881       4.692       4.456       4.197       4.009       3.784       3.393       2.962    
        2.654       2.401       2.183       1.959       1.723       1.437       1.155      0.8382      0.4142       0.000    
  39    10.00       9.926       9.867       9.813       9.740       9.642       9.536       9.432       9.290       9.107    
        8.952       8.844       8.712       8.549       8.303       8.020       7.757       7.454       7.239       7.138    
        6.999       6.848       6.761       6.692       6.569       6.278       5.925       5.734       5.597       5.460    
        5.284       5.096       4.890       4.702       4.524       4.313       4.065       3.792       3.408       3.007    
        2.682       2.421       2.249       2.061       1.795       1.513       1.226      0.8725      0.4088       0.000    
  40    10.00       9.918       9.860       9.805       9.729       9.627       9.523       9.420       9.294       9.140    
        9.012       8.913       8.740       8.473       8.158       7.873       7.594       7.340       7.189       7.051    
        6.888       6.760       6.691       6.600       6.436       6.176       5.947       5.761       5.610       5.467    
        5.296       5.096       4.903       4.747       4.592       4.378       4.092       3.808       3.417       2.988    
        2.683       2.476       2.287       2.127       1.847       1.538       1.276      0.8750      0.4073       0.000    
  41    10.00       9.925       9.857       9.790       9.708       9.627       9.540       9.444       9.318       9.177    
        9.053       8.928       8.693       8.369       8.045       7.780       7.508       7.269       7.118       6.966    
        6.802       6.693       6.612       6.504       6.337       6.148       5.997       5.819       5.630       5.464    
        5.301       5.122       4.938       4.803       4.638       4.425       4.139       3.747       3.299       2.968    
        2.747       2.547       2.352       2.128       1.837       1.541       1.317      0.9322      0.4227       0.000    
  42    10.00       9.924       9.847       9.788       9.727       9.652       9.559       9.449       9.341       9.231    
        9.066       8.843       8.569       8.259       7.958       7.717       7.451       7.220       7.056       6.884    
        6.732       6.634       6.544       6.447       6.300       6.171       6.045       5.843       5.632       5.483    
        5.351       5.156       4.961       4.830       4.677       4.450       4.099       3.636       3.226       2.980    
        2.813       2.635       2.386       2.088       1.809       1.578       1.345      0.9833      0.4851       0.000    
  43    10.00       9.917       9.852       9.801       9.752       9.680       9.587       9.482       9.359       9.183    
        8.965       8.734       8.477       8.155       7.886       7.664       7.424       7.190       6.982       6.821    
        6.686       6.589       6.513       6.435       6.312       6.181       6.053       5.843       5.660       5.552    
        5.391       5.181       4.993       4.858       4.680       4.387       3.981       3.543       3.244       3.056    
        2.878       2.673       2.367       2.062       1.815       1.592       1.391      0.9972      0.4557       0.000    
  44    10.00       9.916       9.860       9.814       9.755       9.700       9.623       9.480       9.294       9.088    
        8.904       8.671       8.361       8.092       7.878       7.621       7.359       7.109       6.903       6.763    
        6.665       6.583       6.509       6.428       6.323       6.189       6.016       5.843       5.721       5.592    
        5.448       5.265       5.049       4.844       4.628       4.299       3.874       3.513       3.282       3.100    
        2.921       2.677       2.382       2.118       1.854       1.614       1.369      0.9002      0.4140       0.000    
  45    10.00       9.926       9.873       9.812       9.755       9.707       9.578       9.406       9.218       9.041    
        8.889       8.576       8.254       8.059       7.827       7.541       7.255       7.025       6.859       6.749    
        6.675       6.599       6.518       6.423       6.306       6.175       6.030       5.897       5.790       5.656    
        5.489       5.300       5.078       4.819       4.560       4.207       3.808       3.524       3.348       3.160    
        2.922       2.643       2.390       2.149       1.915       1.676       1.278      0.8000      0.4026       0.000    
  46    10.00       9.940       9.883       9.812       9.746       9.650       9.510       9.379       9.221       9.031    
        8.778       8.479       8.222       7.973       7.726       7.449       7.184       7.014       6.879       6.774    
        6.699       6.625       6.521       6.403       6.291       6.181       6.067       5.946       5.837       5.719    
        5.568       5.369       5.117       4.810       4.440       4.074       3.779       3.578       3.395       3.199    
        2.917       2.620       2.368       2.177       1.954       1.643       1.190      0.7641      0.3767       0.000    
  47    10.00       9.951       9.897       9.826       9.713       9.586       9.466       9.363       9.217       8.967    
        8.663       8.389       8.165       7.957       7.695       7.394       7.160       6.999       6.890       6.803    
        6.722       6.634       6.525       6.402       6.293       6.206       6.112       5.993       5.868       5.752    
        5.621       5.454       5.119       4.689       4.329       4.066       3.819       3.646       3.484       3.213    
        2.869       2.555       2.327       2.195       1.948       1.567       1.125      0.7370      0.3724       0.000    
  48    10.00       9.956       9.900       9.795       9.678       9.568       9.447       9.343       9.196       8.912    
        8.581       8.352       8.168       7.914       7.608       7.337       7.161       6.999       6.891       6.822    
        6.740       6.634       6.517       6.404       6.315       6.246       6.162       6.031       5.886       5.761    
        5.624       5.422       5.073       4.717       4.396       4.105       3.885       3.708       3.500       3.157    
        2.787       2.545       2.363       2.130       1.806       1.468       1.089      0.7423      0.3930       0.000    
  49    10.00       9.953       9.869       9.767       9.679       9.561       9.444       9.334       9.148       8.847    
        8.551       8.332       8.102       7.845       7.615       7.362       7.118       6.967       6.901       6.837    
        6.758       6.637       6.501       6.403       6.335       6.284       6.188       6.036       5.884       5.770    
        5.621       5.356       5.049       4.797       4.527       4.207       3.922       3.703       3.459       3.091    
        2.793       2.581       2.330       1.994       1.707       1.402       1.071      0.7545      0.3842       0.000    
  50    10.00       9.941       9.848       9.755       9.684       9.574       9.444       9.304       9.102       8.865    
        8.566       8.272       8.033       7.828       7.642       7.359       7.081       6.967       6.909       6.846    
        6.771       6.634       6.490       6.401       6.347       6.300       6.192       6.028       5.883       5.768    
        5.605       5.327       5.090       4.874       4.582       4.263       3.974       3.684       3.333       3.007    
        2.850       2.626       2.260       1.923       1.682       1.392       1.104      0.7369      0.3027       0.000    

 HEAD WILL BE SAVED ON UNIT   51 AT END OF TIME STEP  23, STRESS PERIOD    2

 DRAWDOWN WILL BE SAVED ON UNIT   52 AT END OF TIME STEP  23, STRESS PERIOD    2
1
  VOLUMETRIC BUDGET FOR ENTIRE MODEL AT END OF TIME STEP 23 IN STRESS PERIOD   2
  ------------------------------------------------------------------------------

     CUMULATIVE VOLUMES      L**3       RATES FOR THIS TIME STEP      L**3/T
     ------------------                 ------------------------

           IN:                                      IN:
           ---                                      ---
             STORAGE =       11480.7256               STORAGE =         496.1255
       CONSTANT HEAD =       12976.5977         CONSTANT HEAD =         543.7399
               WELLS =           0.0000                 WELLS =           0.0000

            TOTAL IN =       24457.3242              TOTAL IN =        1039.8654

          OUT:                                     OUT:
          ----                                     ----
             STORAGE =       9.3745E-03               STORAGE =           0.0000
       CONSTANT HEAD =       12957.3115         CONSTANT HEAD =         539.8647
               WELLS =       11500.0000                 WELLS =         500.0000

           TOTAL OUT =       24457.3203             TOTAL OUT =        1039.8647

            IN - OUT =       3.9063E-03              IN - OUT =       6.1035E-04

 PERCENT DISCREPANCY =           0.00     PERCENT DISCREPANCY =           0.00






          TIME SUMMARY AT END OF TIME STEP  23 IN STRESS PERIOD    2
                    SECONDS     MINUTES      HOURS       DAYS        YEARS
                    -----------------------------------------------------------
   TIME STEP LENGTH  86400.      1440.0      24.000      1.0000     2.73785E-03
 STRESS PERIOD TIME 1.98720E+06  33120.      552.00      23.000     6.29706E-02
         TOTAL TIME 2.07360E+06  34560.      576.00      24.000     6.57084E-02
1
 
 SOLVING FOR HEAD 

 OUTPUT CONTROL FOR STRESS PERIOD    2   TIME STEP  24
    SAVE HEAD FOR ALL LAYERS
    SAVE DRAWDOWN FOR ALL LAYERS
    SAVE BUDGET
    PRINT HEAD FOR ALL LAYERS
    PRINT BUDGET
 UBDSV1 SAVING "         STORAGE" ON UNIT  53 AT TIME STEP 24, STRESS PERIOD   2
 UBDSV2 SAVING "   CONSTANT HEAD" ON UNIT  53 AT TIME STEP 24, STRESS PERIOD   2
 UBDSV1 SAVING "FLOW RIGHT FACE " ON UNIT  53 AT TIME STEP 24, STRESS PERIOD   2
 UBDSV1 SAVING "FLOW FRONT FACE " ON UNIT  53 AT TIME STEP 24, STRESS PERIOD   2
1
              HEAD IN LAYER   1 AT END OF TIME STEP  24 IN STRESS PERIOD    2
  ---------------------------------------------------------------------------

            1           2           3           4           5           6           7           8           9          10
           11          12          13          14          15          16          17          18          19          20
           21          22          23          24          25          26          27          28          29          30
           31          32          33          34          35          36          37          38          39          40
           41          42          43          44          45          46          47          48          49          50
 ........................................................................................................................
   1    10.00       9.959       9.904       9.849       9.803       9.747       9.691       9.634       9.556       9.493    
        9.456       9.418       9.376       9.335       9.268       9.194       9.114       9.051       9.022       8.991    
        8.951       8.917       8.881       8.836       8.772       8.661       8.527       8.396       8.246       8.096    
        7.883       7.545       7.147       6.729       6.261       5.829       5.463       5.122       4.658       4.153    
        3.724       3.299       2.712       2.156       1.767       1.377       1.050      0.8386      0.5561       0.000    
   2    10.00       9.959       9.909       9.854       9.805       9.753       9.692       9.616       9.542       9.493    
        9.460       9.426       9.394       9.342       9.265       9.189       9.116       9.054       9.023       8.987    
        8.947       8.921       8.892       8.844       8.772       8.666       8.531       8.395       8.253       8.103    
        7.873       7.525       7.107       6.635       6.163       5.746       5.419       5.085       4.614       4.142    
        3.708       3.196       2.666       2.226       1.839       1.475       1.101      0.7965      0.4252       0.000    
   3    10.00       9.955       9.908       9.857       9.807       9.748       9.672       9.600       9.553       9.508    
        9.469       9.440       9.408       9.359       9.283       9.188       9.111       9.060       9.021       8.985    
        8.952       8.924       8.895       8.835       8.758       8.651       8.524       8.421       8.272       8.094    
        7.797       7.394       6.952       6.496       6.060       5.670       5.377       5.034       4.526       4.066    
        3.705       3.237       2.748       2.324       1.921       1.553       1.111      0.6835      0.3006       0.000    
   4    10.00       9.959       9.910       9.855       9.794       9.725       9.653       9.600       9.559       9.517    
        9.484       9.459       9.424       9.371       9.301       9.197       9.111       9.064       9.023       8.989    
        8.951       8.918       8.882       8.819       8.741       8.638       8.514       8.400       8.284       8.062    
        7.682       7.192       6.722       6.373       6.045       5.666       5.288       4.854       4.426       4.088    
        3.765       3.350       2.858       2.439       2.016       1.570       1.060      0.6070      0.2827       0.000    
   5    10.00       9.956       9.905       9.842       9.779       9.715       9.652       9.606       9.564       9.528    
        9.499       9.472       9.432       9.370       9.289       9.195       9.121       9.070       9.028       8.981    
        8.938       8.904       8.859       8.794       8.720       8.604       8.482       8.383       8.267       7.988    
        7.494       6.962       6.574       6.308       6.009       5.623       5.193       4.765       4.458       4.171    
        3.877       3.446       2.932       2.565       2.134       1.550      0.9651      0.5603      0.2818       0.000    
   6    10.00       9.945       9.885       9.836       9.776       9.710       9.656       9.616       9.572       9.539    
        9.512       9.480       9.427       9.356       9.287       9.209       9.130       9.067       9.013       8.961    
        8.922       8.886       8.845       8.777       8.669       8.558       8.467       8.360       8.168       7.771    
        7.228       6.750       6.454       6.251       6.008       5.585       5.118       4.773       4.546       4.292    
        4.004       3.612       3.100       2.642       2.108       1.483      0.8652      0.4927      0.2752       0.000    
   7    10.00       9.930       9.873       9.825       9.768       9.720       9.669       9.627       9.590       9.555    
        9.520       9.474       9.411       9.342       9.279       9.215       9.129       9.044       8.987       8.944    
        8.906       8.867       8.825       8.736       8.626       8.536       8.436       8.270       7.955       7.456    
        6.941       6.568       6.382       6.221       5.915       5.501       5.189       4.883       4.633       4.454    
        4.160       3.754       3.204       2.610       1.952       1.235      0.7251      0.5002      0.2533       0.000    
   8    10.00       9.925       9.873       9.822       9.771       9.729       9.685       9.644       9.609       9.575    
        9.524       9.457       9.391       9.331       9.272       9.195       9.093       9.013       8.970       8.928    
        8.884       8.851       8.784       8.691       8.594       8.488       8.305       8.045       7.621       7.192    
        6.804       6.503       6.358       6.163       5.821       5.500       5.239       5.013       4.807       4.594    
        4.287       3.784       3.148       2.471       1.723       1.115      0.7673      0.4906      0.2260       0.000    
   9    10.00       9.929       9.870       9.820       9.783       9.747       9.705       9.665       9.625       9.587    
        9.522       9.442       9.374       9.313       9.243       9.157       9.065       8.995       8.949       8.906    
        8.866       8.814       8.723       8.637       8.540       8.397       8.136       7.749       7.333       7.024    
        6.715       6.487       6.324       6.066       5.750       5.498       5.310       5.132       4.954       4.720    
        4.338       3.812       3.135       2.379       1.689       1.154      0.7826      0.4865      0.2412       0.000    
  10    10.00       9.928       9.868       9.827       9.794       9.760       9.723       9.688       9.642       9.582    
        9.505       9.424       9.358       9.292       9.219       9.120       9.028       8.972       8.931       8.887    
        8.846       8.763       8.665       8.572       8.442       8.236       7.857       7.436       7.101       6.866    
        6.676       6.484       6.271       6.006       5.731       5.533       5.386       5.237       5.038       4.765    
        4.354       3.776       3.052       2.376       1.830       1.322      0.8378      0.5165      0.2721       0.000    
  11    10.00       9.918       9.872       9.838       9.805       9.775       9.743       9.696       9.632       9.565    
        9.489       9.410       9.347       9.261       9.162       9.076       9.010       8.956       8.915       8.867    
        8.796       8.691       8.555       8.421       8.201       7.898       7.561       7.272       6.994       6.817    
        6.657       6.413       6.169       5.970       5.781       5.628       5.478       5.286       5.048       4.729    
        4.343       3.830       3.094       2.476       1.990       1.502      0.9646      0.5112      0.2052       0.000    
  12    10.00       9.926       9.880       9.844       9.817       9.785       9.750       9.688       9.613       9.544    
        9.472       9.395       9.312       9.209       9.128       9.054       8.985       8.939       8.889       8.817    
        8.686       8.510       8.323       8.126       7.856       7.622       7.432       7.141       6.904       6.755    
        6.581       6.359       6.156       5.984       5.853       5.714       5.533       5.315       5.030       4.693    
        4.310       3.808       3.132       2.578       2.137       1.609       1.014      0.4831      0.1606       0.000    
  13    10.00       9.942       9.900       9.861       9.826       9.791       9.739       9.664       9.586       9.519    
        9.445       9.368       9.282       9.177       9.085       9.011       8.962       8.905       8.836       8.680    
        8.445       8.232       8.027       7.782       7.567       7.454       7.227       6.962       6.831       6.700    
        6.510       6.311       6.159       6.030       5.918       5.789       5.580       5.305       5.023       4.672    
        4.290       3.777       3.079       2.560       2.151       1.573      0.9440      0.4368      0.1262       0.000    
  14    10.00       9.958       9.920       9.879       9.837       9.784       9.709       9.631       9.562       9.487    
        9.413       9.343       9.242       9.127       9.044       8.984       8.909       8.828       8.673       8.401    
        8.149       7.955       7.685       7.479       7.376       7.249       7.017       6.856       6.732       6.606    
        6.439       6.302       6.203       6.088       5.968       5.831       5.596       5.291       4.988       4.630    
        4.219       3.600       2.942       2.523       2.022       1.468      0.9315      0.3991      0.1027       0.000    
  15    10.00       9.967       9.929       9.888       9.840       9.761       9.670       9.602       9.534       9.462    
        9.406       9.326       9.195       9.071       8.996       8.899       8.800       8.697       8.440       8.119    
        7.906       7.632       7.379       7.295       7.226       7.065       6.875       6.718       6.625       6.527    
        6.414       6.326       6.241       6.141       6.012       5.841       5.569       5.223       4.904       4.572    
        4.127       3.523       2.952       2.389       1.784       1.288      0.8012      0.3519      0.1056       0.000    
  16    10.00       9.976       9.939       9.890       9.818       9.720       9.643       9.587       9.526       9.453    
        9.379       9.267       9.119       9.001       8.896       8.782       8.713       8.513       8.138       7.837    
        7.616       7.340       7.238       7.181       7.063       6.862       6.706       6.625       6.581       6.507    
        6.417       6.342       6.274       6.169       6.011       5.801       5.475       5.159       4.904       4.545    
        4.038       3.387       2.733       2.108       1.595       1.105      0.6829      0.3342      0.1127       0.000    
  17    10.00       9.976       9.937       9.874       9.785       9.688       9.623       9.573       9.506       9.426    
        9.306       9.166       9.034       8.906       8.777       8.667       8.504       8.169       7.811       7.595    
        7.373       7.195       7.113       6.997       6.811       6.658       6.610       6.588       6.554       6.484    
        6.409       6.347       6.284       6.188       5.971       5.680       5.398       5.170       4.925       4.473    
        3.796       3.135       2.513       1.901       1.364      0.8940      0.5725      0.2989      0.1228       0.000    
  18    10.00       9.970       9.925       9.851       9.740       9.663       9.611       9.544       9.469       9.360    
        9.217       9.093       8.961       8.793       8.624       8.443       8.203       7.856       7.580       7.386    
        7.200       7.047       6.924       6.759       6.627       6.581       6.565       6.551       6.513       6.456    
        6.402       6.348       6.272       6.116       5.890       5.639       5.394       5.189       4.846       4.245    
        3.555       2.855       2.193       1.693       1.265      0.8382      0.4917      0.2472      0.1185       0.000    
  19    10.00       9.964       9.914       9.806       9.696       9.651       9.595       9.513       9.422       9.305    
        9.176       9.060       8.871       8.618       8.416       8.228       7.931       7.606       7.414       7.262    
        7.068       6.883       6.747       6.616       6.549       6.528       6.517       6.493       6.455       6.424    
        6.388       6.334       6.226       6.068       5.869       5.623       5.396       5.102       4.524       3.906    
        3.352       2.630       2.003       1.607       1.183      0.7561      0.4439      0.2517      0.1289       0.000    
  20    10.00       9.956       9.873       9.763       9.683       9.635       9.575       9.488       9.387       9.282    
        9.150       8.974       8.694       8.440       8.258       8.022       7.722       7.540       7.363       7.149    
        6.935       6.767       6.625       6.531       6.481       6.454       6.423       6.410       6.390       6.379    
        6.356       6.305       6.189       6.031       5.823       5.603       5.321       4.791       4.171       3.681    
        3.085       2.423       1.954       1.571       1.143      0.6706      0.3875      0.2619      0.1350       0.000    
  21    10.00       9.927       9.838       9.747       9.669       9.618       9.554       9.454       9.353       9.255    
        9.080       8.814       8.527       8.332       8.126       7.874       7.647       7.473       7.258       7.030    
        6.823       6.658       6.533       6.434       6.367       6.317       6.300       6.305       6.304       6.308    
        6.306       6.247       6.123       5.964       5.750       5.506       5.070       4.515       4.024       3.430    
        2.867       2.347       1.952       1.564      0.9620      0.5424      0.3921      0.2958      0.1418       0.000    
  22    10.00       9.907       9.802       9.721       9.660       9.599       9.510       9.417       9.329       9.193    
        8.971       8.669       8.438       8.261       8.028       7.767       7.547       7.359       7.160       6.942    
        6.735       6.561       6.395       6.245       6.159       6.140       6.156       6.172       6.204       6.221    
        6.222       6.154       6.046       5.876       5.652       5.408       4.957       4.416       3.776       3.205    
        2.797       2.382       1.907       1.259      0.7492      0.5404      0.4108      0.2734      0.1011       0.000    
  23    10.00       9.881       9.779       9.715       9.651       9.561       9.465       9.396       9.285       9.115    
        8.854       8.594       8.427       8.206       7.901       7.638       7.461       7.307       7.120       6.886    
        6.667       6.463       6.227       5.949       5.745       5.789       5.922       6.010       6.085       6.131    
        6.132       6.071       5.961       5.805       5.589       5.308       4.851       4.184       3.546       3.144    
        2.768       2.245       1.567       1.013      0.7368      0.5508      0.3939      0.2323      9.2443E-02   0.000    
  24    10.00       9.863       9.790       9.714       9.623       9.530       9.456       9.379       9.272       9.047    
        8.800       8.607       8.418       8.123       7.785       7.594       7.445       7.293       7.080       6.859    
        6.665       6.407       6.029       5.501       4.854       5.126       5.528       5.805       5.962       6.036    
        6.050       5.995       5.896       5.724       5.491       5.147       4.575       3.948       3.469       3.049    
        2.590       2.009       1.404      0.9816      0.7378      0.5364      0.3592      0.2516      0.1235       0.000    
  25    10.00       9.879       9.804       9.709       9.614       9.529       9.454       9.384       9.224       9.004    
        8.813       8.617       8.368       8.040       7.790       7.620       7.452       7.270       7.075       6.885    
        6.662       6.416       5.877       4.869       3.062       4.422       5.162       5.598       5.858       5.977    
        5.993       5.945       5.835       5.607       5.300       4.850       4.322       3.831       3.418       2.925    
        2.372       1.818       1.309      0.9725      0.7645      0.5572      0.3784      0.2635      0.1640       0.000    
  26    10.00       9.896       9.823       9.723       9.621       9.543       9.464       9.359       9.200       9.046    
        8.867       8.597       8.291       8.025       7.836       7.672       7.479       7.254       7.065       6.907    
        6.722       6.482       6.020       5.285       4.467       4.830       5.285       5.611       5.850       5.963    
        5.958       5.898       5.743       5.480       5.148       4.722       4.144       3.682       3.300       2.707    
        2.084       1.599       1.296       1.062      0.8244      0.6015      0.4124      0.2862      0.1672       0.000    
  27    10.00       9.917       9.828       9.738       9.650       9.557       9.468       9.362       9.230       9.088    
        8.859       8.553       8.284       8.064       7.907       7.719       7.466       7.234       7.088       6.959    
        6.816       6.597       6.251       5.825       5.397       5.385       5.565       5.773       5.935       5.975    
        5.938       5.863       5.688       5.405       5.022       4.455       3.922       3.548       2.976       2.360    
        1.880       1.570       1.341       1.136      0.9013      0.6565      0.4480      0.3149      0.1987       0.000    
  28    10.00       9.923       9.850       9.768       9.681       9.583       9.484       9.381       9.265       9.098    
        8.827       8.559       8.324       8.110       7.944       7.757       7.553       7.333       7.131       7.000    
        6.888       6.733       6.514       6.214       5.962       5.819       5.862       5.983       6.021       6.000    
        5.931       5.824       5.612       5.264       4.773       4.199       3.752       3.237       2.649       2.216    
        1.876       1.613       1.389       1.175      0.9470      0.7163      0.5082      0.3586      0.2049       0.000    
  29    10.00       9.929       9.857       9.792       9.707       9.618       9.522       9.415       9.286       9.061    
        8.807       8.578       8.354       8.173       7.983       7.786       7.602       7.428       7.239       7.070    
        6.951       6.834       6.692       6.518       6.283       6.169       6.153       6.147       6.122       6.030    
        5.910       5.722       5.479       5.038       4.464       3.979       3.541       3.013       2.547       2.232    
        1.956       1.669       1.415       1.210       1.004      0.7575      0.5369      0.3746      0.2077       0.000    
  30    10.00       9.938       9.878       9.822       9.745       9.657       9.569       9.447       9.273       9.066    
        8.808       8.558       8.374       8.192       8.011       7.835       7.687       7.529       7.348       7.170    
        7.026       6.928       6.811       6.695       6.567       6.450       6.396       6.299       6.201       6.050    
        5.835       5.537       5.222       4.780       4.347       3.903       3.439       2.950       2.601       2.316    
        1.990       1.701       1.481       1.247       1.002      0.7837      0.5722      0.3978      0.2235       0.000    
  31    10.00       9.950       9.901       9.847       9.790       9.718       9.618       9.464       9.263       9.045    
        8.795       8.571       8.402       8.224       8.055       7.893       7.748       7.625       7.442       7.266    
        7.137       7.033       6.940       6.841       6.753       6.642       6.528       6.413       6.247       6.016    
        5.684       5.332       5.028       4.688       4.283       3.819       3.355       2.959       2.715       2.443    
        2.080       1.764       1.513       1.276       1.049      0.8242      0.6062      0.4186      0.2167       0.000    
  32    10.00       9.957       9.921       9.874       9.819       9.751       9.642       9.463       9.279       9.072    
        8.814       8.607       8.447       8.262       8.080       7.946       7.823       7.678       7.530       7.360    
        7.225       7.115       7.020       6.916       6.823       6.740       6.610       6.447       6.216       5.906    
        5.548       5.223       4.927       4.613       4.220       3.806       3.444       3.108       2.828       2.517    
        2.181       1.869       1.605       1.334       1.086      0.8960      0.6682      0.4106      0.1833       0.000    
  33    10.00       9.963       9.935       9.895       9.839       9.764       9.621       9.444       9.296       9.107    
        8.871       8.674       8.483       8.271       8.110       8.001       7.894       7.745       7.585       7.432    
        7.283       7.166       7.042       6.937       6.862       6.779       6.606       6.369       6.124       5.839    
        5.493       5.215       4.913       4.538       4.177       3.815       3.523       3.257       2.938       2.596    
        2.307       2.012       1.722       1.442       1.182      0.9697      0.7146      0.4124      0.1792       0.000    
  34    10.00       9.969       9.948       9.913       9.839       9.728       9.595       9.472       9.318       9.131    
        8.927       8.709       8.491       8.282       8.154       8.066       7.950       7.805       7.621       7.468    
        7.328       7.177       7.047       6.950       6.871       6.745       6.536       6.315       6.068       5.739    
        5.438       5.222       4.922       4.564       4.214       3.885       3.610       3.347       3.019       2.711    
        2.454       2.171       1.854       1.575       1.311       1.068      0.7640      0.4638      0.2432       0.000    
  35    10.00       9.975       9.948       9.897       9.805       9.696       9.600       9.493       9.367       9.162    
        8.935       8.712       8.490       8.321       8.211       8.117       7.989       7.832       7.648       7.467    
        7.298       7.153       7.022       6.931       6.844       6.716       6.498       6.241       5.954       5.616    
        5.396       5.165       4.871       4.611       4.322       3.980       3.680       3.461       3.155       2.828    
        2.580       2.290       1.973       1.698       1.424       1.158      0.8756      0.5803      0.2871       0.000    
  36    10.00       9.968       9.925       9.869       9.783       9.681       9.601       9.507       9.369       9.167    
        8.915       8.676       8.519       8.396       8.285       8.162       8.008       7.843       7.637       7.379    
        7.197       7.086       6.977       6.900       6.814       6.654       6.407       6.130       5.782       5.490    
        5.310       5.125       4.878       4.631       4.392       4.088       3.792       3.561       3.288       2.932    
        2.660       2.337       2.021       1.811       1.545       1.249      0.9658      0.6572      0.3215       0.000    
  37    10.00       9.950       9.904       9.848       9.763       9.674       9.581       9.490       9.361       9.124    
        8.859       8.678       8.588       8.467       8.326       8.199       7.999       7.789       7.513       7.244    
        7.137       7.043       6.937       6.851       6.747       6.547       6.301       5.934       5.624       5.444    
        5.294       5.102       4.861       4.669       4.427       4.141       3.909       3.688       3.382       2.991    
        2.635       2.332       2.112       1.895       1.628       1.347       1.064      0.7248      0.3980       0.000    
  38    10.00       9.943       9.882       9.823       9.748       9.662       9.563       9.464       9.314       9.089    
        8.891       8.750       8.635       8.521       8.363       8.143       7.910       7.656       7.344       7.176    
        7.091       6.963       6.847       6.777       6.653       6.438       6.076       5.741       5.586       5.453    
        5.297       5.096       4.881       4.692       4.456       4.197       4.009       3.784       3.393       2.962    
        2.654       2.401       2.183       1.959       1.723       1.437       1.155      0.8382      0.4142       0.000    
  39    10.00       9.926       9.866       9.813       9.740       9.641       9.535       9.431       9.289       9.106    
        8.950       8.841       8.708       8.545       8.299       8.016       7.753       7.451       7.235       7.133    
        6.994       6.844       6.757       6.688       6.566       6.276       5.924       5.733       5.596       5.459    
        5.283       5.096       4.890       4.702       4.524       4.313       4.065       3.792       3.408       3.007    
        2.682       2.421       2.249       2.061       1.795       1.513       1.226      0.8725      0.4088       0.000    
  40    10.00       9.918       9.860       9.805       9.728       9.626       9.522       9.419       9.293       9.139    
        9.010       8.911       8.737       8.470       8.155       7.870       7.592       7.337       7.186       7.048    
        6.885       6.758       6.689       6.597       6.434       6.174       5.946       5.761       5.609       5.467    
        5.296       5.096       4.903       4.747       4.592       4.378       4.092       3.808       3.417       2.988    
        2.683       2.476       2.287       2.127       1.847       1.538       1.276      0.8750      0.4073       0.000    
  41    10.00       9.925       9.857       9.790       9.708       9.627       9.539       9.443       9.317       9.176    
        9.052       8.926       8.691       8.367       8.043       7.778       7.507       7.267       7.116       6.964    
        6.800       6.691       6.610       6.502       6.335       6.147       5.996       5.818       5.630       5.464    
        5.300       5.121       4.938       4.803       4.638       4.425       4.139       3.747       3.299       2.968    
        2.747       2.547       2.352       2.128       1.837       1.541       1.317      0.9322      0.4227       0.000    
  42    10.00       9.924       9.847       9.788       9.727       9.652       9.558       9.448       9.340       9.230    
        9.065       8.842       8.568       8.258       7.957       7.716       7.450       7.219       7.054       6.882    
        6.731       6.633       6.542       6.446       6.299       6.171       6.044       5.842       5.631       5.483    
        5.351       5.156       4.960       4.829       4.677       4.450       4.099       3.636       3.226       2.980    
        2.813       2.635       2.386       2.088       1.809       1.577       1.345      0.9833      0.4851       0.000    
  43    10.00       9.917       9.852       9.801       9.752       9.680       9.587       9.482       9.359       9.183    
        8.964       8.733       8.477       8.155       7.885       7.663       7.423       7.189       6.981       6.820    
        6.685       6.588       6.513       6.434       6.311       6.181       6.052       5.843       5.660       5.552    
        5.391       5.181       4.993       4.858       4.680       4.387       3.981       3.543       3.244       3.056    
        2.878       2.673       2.367       2.062       1.815       1.592       1.391      0.9972      0.4557       0.000    
  44    10.00       9.916       9.860       9.814       9.755       9.700       9.622       9.479       9.294       9.087    
        8.904       8.670       8.360       8.091       7.877       7.621       7.359       7.109       6.903       6.762    
        6.664       6.582       6.508       6.428       6.322       6.188       6.016       5.843       5.721       5.592    
        5.447       5.264       5.049       4.844       4.627       4.299       3.874       3.513       3.282       3.100    
        2.921       2.677       2.382       2.118       1.854       1.614       1.369      0.9002      0.4140       0.000    
  45    10.00       9.926       9.873       9.812       9.755       9.706       9.578       9.406       9.218       9.041    
        8.889       8.575       8.254       8.058       7.826       7.541       7.255       7.024       6.859       6.749    
        6.675       6.598       6.517       6.422       6.306       6.175       6.029       5.897       5.790       5.655    
        5.489       5.300       5.078       4.819       4.560       4.207       3.808       3.524       3.348       3.160    
        2.922       2.643       2.390       2.149       1.915       1.676       1.278      0.8000      0.4026       0.000    
  46    10.00       9.940       9.883       9.812       9.746       9.650       9.509       9.379       9.221       9.031    
        8.778       8.479       8.221       7.973       7.726       7.449       7.183       7.014       6.878       6.773    
        6.699       6.624       6.521       6.403       6.290       6.180       6.066       5.945       5.837       5.719    
        5.568       5.369       5.117       4.810       4.440       4.074       3.779       3.578       3.395       3.199    
        2.917       2.620       2.368       2.177       1.954       1.643       1.190      0.7641      0.3767       0.000    
  47    10.00       9.951       9.897       9.826       9.712       9.586       9.465       9.363       9.217       8.966    
        8.663       8.389       8.165       7.957       7.695       7.394       7.160       6.999       6.890       6.802    
        6.722       6.633       6.525       6.401       6.292       6.206       6.112       5.993       5.868       5.752    
        5.621       5.454       5.119       4.689       4.329       4.066       3.819       3.646       3.484       3.213    
        2.869       2.555       2.327       2.195       1.948       1.567       1.125      0.7370      0.3724       0.000    
  48    10.00       9.956       9.900       9.795       9.677       9.568       9.447       9.343       9.196       8.912    
        8.581       8.352       8.168       7.914       7.608       7.337       7.161       6.999       6.891       6.822    
        6.740       6.634       6.517       6.404       6.314       6.246       6.162       6.030       5.886       5.761    
        5.623       5.422       5.073       4.717       4.396       4.105       3.885       3.708       3.500       3.157    
        2.787       2.545       2.363       2.130       1.806       1.468       1.089      0.7423      0.3930       0.000    
  49    10.00       9.953       9.869       9.767       9.679       9.561       9.444       9.334       9.147       8.847    
        8.551       8.332       8.102       7.845       7.614       7.362       7.117       6.967       6.900       6.836    
        6.758       6.636       6.501       6.403       6.335       6.284       6.187       6.035       5.883       5.770    
        5.621       5.356       5.049       4.797       4.527       4.207       3.922       3.703       3.459       3.091    
        2.793       2.581       2.330       1.994       1.707       1.402       1.071      0.7545      0.3842       0.000    
  50    10.00       9.941       9.848       9.755       9.684       9.574       9.444       9.304       9.102       8.865    
        8.565       8.272       8.033       7.828       7.642       7.359       7.081       6.967       6.909       6.846    
        6.771       6.634       6.489       6.400       6.346       6.300       6.191       6.028       5.883       5.767    
        5.605       5.327       5.090       4.874       4.582       4.263       3.974       3.684       3.333       3.007    
        2.849       2.626       2.260       1.923       1.682       1.392       1.104      0.7369      0.3027       0.000    

 HEAD WILL BE SAVED ON UNIT   51 AT END OF TIME STEP  24, STRESS PERIOD    2

 DRAWDOWN WILL BE SAVED ON UNIT   52 AT END OF TIME STEP  24, STRESS PERIOD    2
1
  VOLUMETRIC BUDGET FOR ENTIRE MODEL AT END OF TIME STEP 24 IN STRESS PERIOD   2
  ------------------------------------------------------------------------------

     CUMULATIVE VOLUMES      L**3       RATES FOR THIS TIME STEP      L**3/T
     ------------------                 ------------------------

           IN:                                      IN:
           ---                                      ---
             STORAGE =       11976.1787               STORAGE =         495.4527
       CONSTANT HEAD =       13521.0020         CONSTANT HEAD =         544.4041
               WELLS =           0.0000                 WELLS =           0.0000

            TOTAL IN =       25497.1797              TOTAL IN =        1039.8568

          OUT:                                     OUT:
          ----                                     ----
             STORAGE =       9.3745E-03               STORAGE =           0.0000
       CONSTANT HEAD =       13497.1689         CONSTANT HEAD =         539.8571
               WELLS =       12000.0000                 WELLS =         500.0000

           TOTAL OUT =       25497.1777             TOTAL OUT =        1039.8572

            IN - OUT =       1.9531E-03              IN - OUT =      -3.6621E-04

 PERCENT DISCREPANCY =           0.00     PERCENT DISCREPANCY =           0.00






          TIME SUMMARY AT END OF TIME STEP  24 IN STRESS PERIOD    2
                    SECONDS     MINUTES      HOURS       DAYS        YEARS
                    -----------------------------------------------------------
   TIME STEP LENGTH  86400.      1440.0      24.000      1.0000     2.73785E-03
 STRESS PERIOD TIME 2.07360E+06  34560.      576.00      24.000     6.57084E-02
         TOTAL TIME 2.16000E+06  36000.      600.00      25.000     6.84463E-02
1
 
 SOLVING FOR HEAD 

 OUTPUT CONTROL FOR STRESS PERIOD    2   TIME STEP  25
    SAVE HEAD FOR ALL LAYERS
    SAVE DRAWDOWN FOR ALL LAYERS
    SAVE BUDGET
    PRINT HEAD FOR ALL LAYERS
    PRINT BUDGET
 UBDSV1 SAVING "         STORAGE" ON UNIT  53 AT TIME STEP 25, STRESS PERIOD   2
 UBDSV2 SAVING "   CONSTANT HEAD" ON UNIT  53 AT TIME STEP 25, STRESS PERIOD   2
 UBDSV1 SAVING "FLOW RIGHT FACE " ON UNIT  53 AT TIME STEP 25, STRESS PERIOD   2
 UBDSV1 SAVING "FLOW FRONT FACE " ON UNIT  53 AT TIME STEP 25, STRESS PERIOD   2
1
              HEAD IN LAYER   1 AT END OF TIME STEP  25 IN STRESS PERIOD    2
  ---------------------------------------------------------------------------

            1           2           3           4           5           6           7           8           9          10
           11          12          13          14          15          16          17          18          19          20
           21          22          23          24          25          26          27          28          29          30
           31          32          33          34          35          36          37          38          39          40
           41          42          43          44          45          46          47          48          49          50
 ........................................................................................................................
   1    10.00       9.959       9.904       9.849       9.803       9.746       9.691       9.633       9.556       9.492    
        9.455       9.417       9.375       9.334       9.267       9.193       9.113       9.050       9.021       8.989    
        8.950       8.915       8.880       8.834       8.771       8.660       8.526       8.395       8.245       8.095    
        7.882       7.544       7.147       6.729       6.261       5.828       5.462       5.122       4.657       4.153    
        3.723       3.298       2.712       2.156       1.767       1.377       1.050      0.8386      0.5561       0.000    
   2    10.00       9.959       9.909       9.854       9.805       9.753       9.692       9.616       9.541       9.493    
        9.459       9.425       9.393       9.341       9.264       9.188       9.114       9.053       9.022       8.986    
        8.945       8.919       8.891       8.842       8.770       8.664       8.530       8.393       8.252       8.102    
        7.872       7.524       7.107       6.635       6.162       5.746       5.418       5.084       4.614       4.141    
        3.707       3.196       2.666       2.226       1.839       1.475       1.101      0.7965      0.4252       0.000    
   3    10.00       9.955       9.908       9.857       9.807       9.747       9.671       9.599       9.552       9.507    
        9.469       9.439       9.407       9.358       9.281       9.187       9.109       9.058       9.020       8.983    
        8.950       8.922       8.893       8.834       8.756       8.650       8.522       8.420       8.270       8.092    
        7.796       7.393       6.951       6.495       6.059       5.670       5.377       5.034       4.526       4.066    
        3.704       3.237       2.747       2.323       1.921       1.553       1.111      0.6834      0.3006       0.000    
   4    10.00       9.959       9.910       9.855       9.794       9.725       9.652       9.599       9.559       9.517    
        9.483       9.458       9.423       9.370       9.299       9.196       9.110       9.063       9.021       8.987    
        8.949       8.916       8.880       8.817       8.739       8.636       8.513       8.398       8.283       8.061    
        7.680       7.191       6.721       6.372       6.044       5.665       5.287       4.854       4.425       4.088    
        3.765       3.349       2.858       2.439       2.016       1.570       1.060      0.6070      0.2827       0.000    
   5    10.00       9.956       9.905       9.842       9.778       9.714       9.651       9.606       9.564       9.527    
        9.498       9.472       9.431       9.369       9.287       9.193       9.120       9.068       9.026       8.979    
        8.936       8.902       8.857       8.792       8.719       8.603       8.480       8.382       8.266       7.986    
        7.492       6.960       6.572       6.306       6.007       5.621       5.192       4.764       4.457       4.170    
        3.876       3.445       2.932       2.565       2.134       1.550      0.9650      0.5603      0.2818       0.000    
   6    10.00       9.945       9.884       9.835       9.776       9.709       9.656       9.615       9.572       9.539    
        9.511       9.479       9.426       9.355       9.285       9.208       9.128       9.065       9.012       8.959    
        8.920       8.884       8.843       8.775       8.667       8.556       8.464       8.358       8.166       7.769    
        7.225       6.748       6.451       6.249       6.006       5.583       5.116       4.771       4.544       4.291    
        4.003       3.611       3.100       2.642       2.108       1.483      0.8652      0.4927      0.2752       0.000    
   7    10.00       9.930       9.873       9.825       9.768       9.720       9.669       9.626       9.590       9.555    
        9.519       9.473       9.409       9.341       9.278       9.214       9.127       9.042       8.985       8.942    
        8.904       8.865       8.822       8.733       8.623       8.533       8.434       8.267       7.952       7.453    
        6.938       6.564       6.378       6.218       5.912       5.498       5.187       4.881       4.631       4.452    
        4.159       3.753       3.203       2.610       1.952       1.235      0.7250      0.5002      0.2533       0.000    
   8    10.00       9.925       9.873       9.821       9.770       9.728       9.684       9.643       9.608       9.574    
        9.523       9.456       9.390       9.330       9.271       9.193       9.091       9.011       8.968       8.926    
        8.882       8.848       8.781       8.688       8.590       8.485       8.302       8.041       7.617       7.187    
        6.800       6.499       6.354       6.159       5.818       5.496       5.236       5.010       4.805       4.592    
        4.286       3.783       3.148       2.471       1.723       1.115      0.7672      0.4906      0.2260       0.000    
   9    10.00       9.929       9.870       9.819       9.783       9.747       9.705       9.665       9.625       9.586    
        9.522       9.441       9.373       9.312       9.242       9.155       9.063       8.992       8.946       8.903    
        8.863       8.811       8.719       8.633       8.536       8.393       8.132       7.744       7.327       7.017    
        6.709       6.482       6.319       6.061       5.745       5.493       5.306       5.128       4.951       4.718    
        4.337       3.811       3.134       2.378       1.689       1.154      0.7826      0.4865      0.2412       0.000    
  10    10.00       9.928       9.868       9.826       9.794       9.760       9.723       9.687       9.641       9.581    
        9.504       9.423       9.357       9.290       9.217       9.118       9.026       8.969       8.927       8.883    
        8.842       8.759       8.660       8.568       8.437       8.230       7.850       7.428       7.093       6.858    
        6.669       6.477       6.265       6.000       5.725       5.528       5.382       5.234       5.034       4.762    
        4.352       3.775       3.051       2.375       1.830       1.322      0.8378      0.5164      0.2721       0.000    
  11    10.00       9.918       9.872       9.837       9.805       9.775       9.742       9.696       9.631       9.564    
        9.487       9.408       9.345       9.259       9.160       9.073       9.006       8.953       8.912       8.863    
        8.792       8.686       8.549       8.414       8.193       7.890       7.551       7.262       6.985       6.807    
        6.648       6.405       6.161       5.963       5.774       5.622       5.473       5.281       5.045       4.726    
        4.341       3.829       3.094       2.475       1.990       1.502      0.9646      0.5112      0.2052       0.000    
  12    10.00       9.925       9.880       9.843       9.816       9.785       9.749       9.687       9.612       9.543    
        9.471       9.393       9.310       9.206       9.125       9.051       8.982       8.936       8.885       8.813    
        8.680       8.504       8.315       8.116       7.844       7.609       7.420       7.128       6.892       6.744    
        6.571       6.349       6.147       5.976       5.846       5.707       5.528       5.310       5.026       4.690    
        4.309       3.807       3.132       2.578       2.137       1.609       1.014      0.4831      0.1606       0.000    
  13    10.00       9.942       9.900       9.861       9.826       9.790       9.738       9.663       9.585       9.518    
        9.443       9.366       9.279       9.174       9.081       9.007       8.958       8.901       8.831       8.673    
        8.436       8.222       8.015       7.768       7.552       7.439       7.212       6.946       6.816       6.687    
        6.498       6.300       6.149       6.021       5.910       5.782       5.574       5.300       5.019       4.670    
        4.288       3.776       3.078       2.560       2.151       1.573      0.9440      0.4368      0.1262       0.000    
  14    10.00       9.958       9.920       9.878       9.837       9.783       9.709       9.630       9.561       9.486    
        9.412       9.341       9.239       9.123       9.040       8.980       8.904       8.822       8.665       8.391    
        8.136       7.941       7.669       7.462       7.358       7.232       6.999       6.838       6.715       6.590    
        6.424       6.289       6.191       6.077       5.958       5.822       5.589       5.286       4.984       4.627    
        4.217       3.599       2.942       2.523       2.022       1.468      0.9314      0.3991      0.1027       0.000    
  15    10.00       9.967       9.929       9.887       9.840       9.760       9.669       9.601       9.532       9.460    
        9.404       9.323       9.191       9.067       8.991       8.893       8.793       8.689       8.429       8.105    
        7.890       7.614       7.359       7.275       7.206       7.046       6.855       6.699       6.606       6.510    
        6.398       6.310       6.227       6.129       6.001       5.832       5.562       5.218       4.900       4.570    
        4.125       3.522       2.952       2.388       1.784       1.288      0.8012      0.3519      0.1056       0.000    
  16    10.00       9.976       9.938       9.890       9.817       9.720       9.642       9.586       9.525       9.451    
        9.377       9.264       9.115       8.996       8.889       8.775       8.705       8.503       8.124       7.820    
        7.597       7.319       7.216       7.160       7.041       6.840       6.684       6.604       6.561       6.488    
        6.400       6.326       6.259       6.155       6.000       5.792       5.468       5.154       4.900       4.542    
        4.036       3.386       2.732       2.108       1.595       1.105      0.6829      0.3342      0.1127       0.000    
  17    10.00       9.976       9.937       9.874       9.784       9.687       9.622       9.571       9.504       9.423    
        9.303       9.161       9.028       8.899       8.769       8.658       8.492       8.154       7.792       7.574    
        7.351       7.172       7.090       6.974       6.787       6.634       6.587       6.566       6.533       6.464    
        6.391       6.330       6.268       6.174       5.959       5.672       5.391       5.165       4.921       4.470    
        3.794       3.134       2.513       1.901       1.364      0.8940      0.5725      0.2989      0.1228       0.000    
  18    10.00       9.970       9.925       9.850       9.739       9.662       9.610       9.543       9.467       9.357    
        9.213       9.088       8.954       8.784       8.613       8.431       8.187       7.837       7.558       7.363    
        7.176       7.023       6.899       6.734       6.602       6.556       6.540       6.528       6.491       6.435    
        6.383       6.330       6.256       6.102       5.878       5.630       5.387       5.183       4.842       4.243    
        3.554       2.854       2.193       1.693       1.265      0.8381      0.4917      0.2472      0.1185       0.000    
  19    10.00       9.963       9.914       9.806       9.696       9.650       9.594       9.512       9.419       9.302    
        9.172       9.054       8.863       8.607       8.403       8.212       7.913       7.584       7.391       7.238    
        7.043       6.857       6.721       6.590       6.523       6.503       6.492       6.468       6.431       6.401    
        6.366       6.315       6.209       6.054       5.858       5.613       5.389       5.096       4.521       3.904    
        3.351       2.630       2.003       1.607       1.183      0.7561      0.4439      0.2517      0.1289       0.000    
  20    10.00       9.956       9.873       9.762       9.682       9.634       9.574       9.486       9.384       9.278    
        9.145       8.968       8.684       8.427       8.243       8.004       7.701       7.517       7.339       7.124    
        6.909       6.741       6.599       6.504       6.455       6.428       6.397       6.385       6.365       6.355    
        6.334       6.285       6.171       6.016       5.811       5.594       5.314       4.787       4.169       3.680    
        3.084       2.422       1.954       1.571       1.143      0.6706      0.3875      0.2619      0.1350       0.000    
  21    10.00       9.926       9.838       9.746       9.668       9.617       9.553       9.452       9.351       9.251    
        9.075       8.805       8.515       8.317       8.109       7.854       7.625       7.449       7.233       7.004    
        6.796       6.631       6.505       6.407       6.340       6.290       6.273       6.279       6.277       6.283    
        6.282       6.225       6.105       5.949       5.738       5.497       5.064       4.512       4.022       3.429    
        2.867       2.346       1.952       1.564      0.9620      0.5424      0.3921      0.2958      0.1418       0.000    
  22    10.00       9.907       9.802       9.720       9.659       9.598       9.508       9.415       9.326       9.189    
        8.964       8.659       8.424       8.245       8.010       7.746       7.524       7.334       7.134       6.916    
        6.708       6.533       6.367       6.217       6.131       6.112       6.129       6.144       6.177       6.194    
        6.197       6.132       6.026       5.861       5.640       5.399       4.952       4.413       3.775       3.204    
        2.797       2.382       1.907       1.259      0.7492      0.5404      0.4108      0.2734      0.1011       0.000    
  23    10.00       9.881       9.779       9.715       9.650       9.560       9.463       9.393       9.281       9.110    
        8.846       8.582       8.413       8.190       7.882       7.616       7.438       7.283       7.094       6.859    
        6.640       6.435       6.199       5.920       5.716       5.760       5.894       5.982       6.057       6.103    
        6.106       6.049       5.942       5.789       5.577       5.299       4.846       4.182       3.545       3.143    
        2.768       2.245       1.567       1.013      0.7368      0.5508      0.3939      0.2323      9.2442E-02   0.000    
  24    10.00       9.863       9.790       9.713       9.622       9.528       9.454       9.376       9.269       9.041    
        8.791       8.596       8.405       8.106       7.764       7.571       7.421       7.268       7.054       6.832    
        6.637       6.379       6.000       5.471       4.823       5.096       5.497       5.775       5.933       6.008    
        6.024       5.972       5.877       5.708       5.479       5.138       4.571       3.946       3.468       3.049    
        2.590       2.009       1.404      0.9816      0.7378      0.5363      0.3592      0.2516      0.1235       0.000    
  25    10.00       9.879       9.804       9.708       9.613       9.527       9.452       9.381       9.219       8.997    
        8.804       8.606       8.354       8.023       7.770       7.598       7.429       7.245       7.049       6.859    
        6.635       6.388       5.848       4.838       3.030       4.390       5.131       5.568       5.829       5.949    
        5.968       5.922       5.816       5.592       5.289       4.843       4.318       3.829       3.417       2.925    
        2.372       1.818       1.309      0.9725      0.7645      0.5572      0.3784      0.2635      0.1640       0.000    
  26    10.00       9.895       9.823       9.722       9.620       9.541       9.462       9.356       9.196       9.040    
        8.859       8.586       8.277       8.007       7.817       7.651       7.456       7.230       7.040       6.880    
        6.695       6.454       5.991       5.255       4.435       4.798       5.253       5.579       5.819       5.936    
        5.934       5.876       5.725       5.466       5.139       4.716       4.141       3.681       3.299       2.707    
        2.084       1.599       1.296       1.062      0.8244      0.6015      0.4124      0.2862      0.1672       0.000    
  27    10.00       9.917       9.827       9.737       9.648       9.555       9.466       9.359       9.225       9.083    
        8.851       8.542       8.270       8.047       7.889       7.699       7.444       7.210       7.063       6.933    
        6.790       6.569       6.223       5.795       5.366       5.353       5.532       5.742       5.905       5.949    
        5.915       5.842       5.671       5.392       5.014       4.451       3.920       3.546       2.975       2.360    
        1.880       1.570       1.341       1.136      0.9013      0.6565      0.4480      0.3149      0.1987       0.000    
  28    10.00       9.923       9.849       9.767       9.680       9.581       9.482       9.378       9.261       9.092    
        8.819       8.548       8.311       8.094       7.926       7.738       7.532       7.310       7.107       6.975    
        6.862       6.706       6.487       6.185       5.931       5.788       5.830       5.953       5.993       5.975    
        5.909       5.805       5.596       5.254       4.766       4.196       3.750       3.236       2.649       2.216    
        1.876       1.613       1.389       1.175      0.9469      0.7163      0.5082      0.3586      0.2049       0.000    
  29    10.00       9.928       9.856       9.791       9.706       9.617       9.519       9.412       9.283       9.055    
        8.799       8.568       8.341       8.158       7.967       7.768       7.582       7.406       7.216       7.046    
        6.926       6.808       6.666       6.490       6.254       6.139       6.124       6.119       6.096       6.007    
        5.890       5.706       5.467       5.031       4.460       3.977       3.539       3.012       2.547       2.232    
        1.956       1.668       1.415       1.210       1.004      0.7575      0.5369      0.3746      0.2077       0.000    
  30    10.00       9.938       9.878       9.821       9.744       9.656       9.568       9.444       9.269       9.061    
        8.801       8.548       8.363       8.178       7.995       7.817       7.668       7.509       7.326       7.147    
        7.002       6.904       6.785       6.669       6.540       6.424       6.370       6.275       6.179       6.030    
        5.818       5.525       5.214       4.775       4.344       3.901       3.438       2.949       2.601       2.316    
        1.990       1.701       1.481       1.247       1.002      0.7837      0.5722      0.3978      0.2235       0.000    
  31    10.00       9.950       9.901       9.846       9.789       9.717       9.616       9.461       9.260       9.039    
        8.787       8.561       8.391       8.211       8.041       7.877       7.731       7.607       7.422       7.245    
        7.114       7.010       6.917       6.817       6.730       6.620       6.506       6.392       6.228       6.000    
        5.672       5.325       5.023       4.684       4.281       3.818       3.355       2.958       2.714       2.443    
        2.080       1.764       1.513       1.276       1.049      0.8242      0.6062      0.4186      0.2167       0.000    
  32    10.00       9.957       9.921       9.874       9.819       9.750       9.641       9.461       9.276       9.067    
        8.807       8.598       8.437       8.250       8.067       7.932       7.807       7.661       7.512       7.341    
        7.204       7.094       6.998       6.896       6.803       6.720       6.590       6.429       6.202       5.895    
        5.541       5.218       4.923       4.610       4.218       3.805       3.443       3.108       2.828       2.516    
        2.181       1.869       1.605       1.334       1.086      0.8959      0.6682      0.4106      0.1833       0.000    
  33    10.00       9.963       9.935       9.894       9.838       9.764       9.620       9.442       9.293       9.103    
        8.865       8.666       8.474       8.260       8.098       7.988       7.880       7.730       7.569       7.414    
        7.265       7.147       7.024       6.920       6.844       6.761       6.590       6.356       6.114       5.831    
        5.488       5.211       4.911       4.536       4.176       3.814       3.522       3.257       2.938       2.596    
        2.307       2.012       1.722       1.442       1.182      0.9697      0.7146      0.4124      0.1792       0.000    
  34    10.00       9.969       9.948       9.913       9.838       9.727       9.594       9.470       9.315       9.127    
        8.922       8.703       8.483       8.273       8.143       8.054       7.937       7.791       7.606       7.453    
        7.312       7.161       7.031       6.935       6.856       6.731       6.524       6.305       6.060       5.733    
        5.434       5.219       4.920       4.562       4.213       3.884       3.610       3.347       3.019       2.711    
        2.454       2.171       1.854       1.575       1.311       1.068      0.7640      0.4638      0.2432       0.000    
  35    10.00       9.974       9.947       9.897       9.804       9.695       9.599       9.491       9.365       9.159    
        8.931       8.707       8.483       8.313       8.202       8.107       7.978       7.820       7.635       7.453    
        7.286       7.140       7.009       6.919       6.831       6.705       6.488       6.234       5.948       5.613    
        5.394       5.164       4.870       4.610       4.322       3.980       3.680       3.461       3.155       2.828    
        2.580       2.290       1.973       1.698       1.424       1.158      0.8756      0.5803      0.2871       0.000    
  36    10.00       9.968       9.924       9.869       9.782       9.681       9.600       9.505       9.367       9.165    
        8.912       8.671       8.513       8.389       8.277       8.153       7.998       7.832       7.627       7.369    
        7.188       7.076       6.967       6.890       6.805       6.645       6.400       6.125       5.779       5.488    
        5.309       5.124       4.877       4.631       4.392       4.088       3.792       3.561       3.288       2.932    
        2.660       2.337       2.021       1.811       1.545       1.249      0.9658      0.6572      0.3215       0.000    
  37    10.00       9.950       9.904       9.847       9.762       9.673       9.580       9.489       9.360       9.121    
        8.856       8.673       8.583       8.461       8.319       8.191       7.991       7.781       7.505       7.236    
        7.129       7.035       6.930       6.843       6.740       6.541       6.296       5.931       5.623       5.443    
        5.293       5.101       4.860       4.669       4.427       4.141       3.909       3.688       3.382       2.991    
        2.635       2.332       2.112       1.895       1.628       1.347       1.064      0.7248      0.3980       0.000    
  38    10.00       9.943       9.882       9.823       9.748       9.662       9.562       9.463       9.312       9.087    
        8.889       8.746       8.630       8.516       8.357       8.137       7.904       7.650       7.339       7.170    
        7.085       6.957       6.841       6.772       6.648       6.433       6.073       5.739       5.585       5.452    
        5.296       5.095       4.881       4.692       4.456       4.197       4.009       3.783       3.393       2.962    
        2.654       2.401       2.183       1.959       1.723       1.437       1.155      0.8382      0.4142       0.000    
  39    10.00       9.926       9.866       9.812       9.739       9.641       9.534       9.431       9.288       9.104    
        8.948       8.838       8.705       8.541       8.295       8.012       7.749       7.447       7.231       7.129    
        6.990       6.840       6.753       6.685       6.562       6.273       5.922       5.732       5.595       5.458    
        5.283       5.095       4.890       4.702       4.524       4.313       4.065       3.792       3.408       3.007    
        2.681       2.420       2.249       2.061       1.795       1.513       1.226      0.8725      0.4088       0.000    
  40    10.00       9.918       9.860       9.805       9.728       9.626       9.522       9.419       9.292       9.137    
        9.008       8.909       8.735       8.468       8.153       7.868       7.589       7.334       7.183       7.045    
        6.882       6.755       6.686       6.595       6.431       6.173       5.945       5.760       5.609       5.466    
        5.295       5.096       4.903       4.747       4.592       4.378       4.092       3.808       3.417       2.988    
        2.683       2.476       2.287       2.127       1.847       1.538       1.276      0.8750      0.4073       0.000    
  41    10.00       9.925       9.857       9.790       9.707       9.626       9.539       9.443       9.316       9.175    
        9.050       8.924       8.690       8.366       8.042       7.777       7.505       7.265       7.114       6.961    
        6.798       6.689       6.608       6.501       6.334       6.146       5.995       5.817       5.629       5.463    
        5.300       5.121       4.938       4.803       4.638       4.425       4.139       3.747       3.299       2.968    
        2.747       2.547       2.352       2.128       1.837       1.541       1.317      0.9322      0.4227       0.000    
  42    10.00       9.924       9.847       9.788       9.727       9.652       9.558       9.448       9.339       9.229    
        9.064       8.841       8.566       8.257       7.955       7.715       7.448       7.218       7.053       6.881    
        6.729       6.632       6.541       6.444       6.298       6.170       6.044       5.842       5.631       5.483    
        5.351       5.156       4.960       4.829       4.677       4.450       4.099       3.636       3.226       2.980    
        2.813       2.635       2.386       2.088       1.809       1.577       1.345      0.9833      0.4851       0.000    
  43    10.00       9.917       9.852       9.801       9.752       9.679       9.586       9.481       9.358       9.182    
        8.963       8.732       8.476       8.154       7.885       7.662       7.422       7.188       6.980       6.819    
        6.684       6.587       6.512       6.433       6.310       6.180       6.052       5.842       5.659       5.551    
        5.391       5.181       4.993       4.858       4.680       4.387       3.981       3.543       3.244       3.055    
        2.878       2.673       2.367       2.062       1.815       1.592       1.391      0.9972      0.4557       0.000    
  44    10.00       9.916       9.860       9.814       9.755       9.700       9.622       9.479       9.294       9.087    
        8.903       8.670       8.360       8.091       7.877       7.620       7.358       7.108       6.902       6.761    
        6.664       6.582       6.507       6.427       6.321       6.188       6.015       5.842       5.720       5.591    
        5.447       5.264       5.049       4.844       4.627       4.299       3.873       3.513       3.282       3.100    
        2.921       2.677       2.382       2.118       1.854       1.614       1.369      0.9002      0.4140       0.000    
  45    10.00       9.926       9.873       9.812       9.755       9.706       9.578       9.406       9.217       9.040    
        8.888       8.575       8.253       8.058       7.826       7.540       7.254       7.024       6.858       6.748    
        6.674       6.598       6.516       6.422       6.305       6.174       6.029       5.897       5.789       5.655    
        5.488       5.299       5.077       4.819       4.560       4.206       3.807       3.524       3.348       3.160    
        2.922       2.643       2.390       2.149       1.915       1.676       1.278      0.8000      0.4026       0.000    
  46    10.00       9.940       9.883       9.812       9.746       9.650       9.509       9.379       9.220       9.031    
        8.778       8.479       8.221       7.973       7.725       7.448       7.183       7.013       6.878       6.773    
        6.698       6.624       6.520       6.402       6.290       6.180       6.066       5.945       5.837       5.718    
        5.568       5.368       5.117       4.810       4.440       4.074       3.779       3.578       3.395       3.199    
        2.917       2.620       2.368       2.177       1.954       1.643       1.190      0.7641      0.3767       0.000    
  47    10.00       9.951       9.897       9.826       9.712       9.586       9.465       9.363       9.217       8.966    
        8.663       8.389       8.164       7.957       7.695       7.393       7.159       6.999       6.890       6.802    
        6.721       6.633       6.524       6.401       6.292       6.206       6.111       5.993       5.868       5.752    
        5.621       5.453       5.119       4.689       4.329       4.065       3.819       3.646       3.484       3.213    
        2.869       2.555       2.327       2.195       1.948       1.567       1.125      0.7370      0.3724       0.000    
  48    10.00       9.956       9.900       9.795       9.677       9.568       9.447       9.343       9.195       8.912    
        8.581       8.352       8.168       7.914       7.608       7.336       7.160       6.998       6.890       6.821    
        6.739       6.634       6.516       6.403       6.314       6.246       6.162       6.030       5.886       5.761    
        5.623       5.422       5.073       4.717       4.396       4.105       3.885       3.708       3.500       3.157    
        2.787       2.545       2.363       2.130       1.806       1.468       1.089      0.7423      0.3930       0.000    
  49    10.00       9.953       9.869       9.767       9.679       9.561       9.443       9.334       9.147       8.847    
        8.551       8.332       8.102       7.845       7.614       7.361       7.117       6.966       6.900       6.836    
        6.758       6.636       6.500       6.402       6.334       6.283       6.187       6.035       5.883       5.770    
        5.621       5.356       5.049       4.797       4.527       4.206       3.922       3.703       3.459       3.091    
        2.793       2.581       2.330       1.994       1.707       1.402       1.071      0.7545      0.3842       0.000    
  50    10.00       9.941       9.848       9.755       9.684       9.574       9.444       9.304       9.102       8.865    
        8.565       8.271       8.032       7.827       7.642       7.359       7.080       6.966       6.908       6.846    
        6.771       6.634       6.489       6.400       6.346       6.299       6.191       6.028       5.883       5.767    
        5.605       5.326       5.090       4.874       4.582       4.263       3.974       3.684       3.333       3.007    
        2.849       2.626       2.260       1.923       1.682       1.392       1.104      0.7369      0.3027       0.000    

 HEAD WILL BE SAVED ON UNIT   51 AT END OF TIME STEP  25, STRESS PERIOD    2

 DRAWDOWN WILL BE SAVED ON UNIT   52 AT END OF TIME STEP  25, STRESS PERIOD    2
1
  VOLUMETRIC BUDGET FOR ENTIRE MODEL AT END OF TIME STEP 25 IN STRESS PERIOD   2
  ------------------------------------------------------------------------------

     CUMULATIVE VOLUMES      L**3       RATES FOR THIS TIME STEP      L**3/T
     ------------------                 ------------------------

           IN:                                      IN:
           ---                                      ---
             STORAGE =       12470.8975               STORAGE =         494.7184
       CONSTANT HEAD =       14066.1318         CONSTANT HEAD =         545.1296
               WELLS =           0.0000                 WELLS =           0.0000

            TOTAL IN =       26537.0293              TOTAL IN =        1039.8480

          OUT:                                     OUT:
          ----                                     ----
             STORAGE =       9.3745E-03               STORAGE =           0.0000
       CONSTANT HEAD =       14037.0166         CONSTANT HEAD =         539.8479
               WELLS =       12500.0000                 WELLS =         500.0000

           TOTAL OUT =       26537.0254             TOTAL OUT =        1039.8479

            IN - OUT =       3.9063E-03              IN - OUT =       1.2207E-04

 PERCENT DISCREPANCY =           0.00     PERCENT DISCREPANCY =           0.00






          TIME SUMMARY AT END OF TIME STEP  25 IN STRESS PERIOD    2
                    SECONDS     MINUTES      HOURS       DAYS        YEARS
                    -----------------------------------------------------------
   TIME STEP LENGTH  86400.      1440.0      24.000      1.0000     2.73785E-03
 STRESS PERIOD TIME 2.16000E+06  36000.      600.00      25.000     6.84463E-02
         TOTAL TIME 2.24640E+06  37440.      624.00      26.000     7.11841E-02
1
 
 SOLVING FOR HEAD 

 OUTPUT CONTROL FOR STRESS PERIOD    2   TIME STEP  26
    SAVE HEAD FOR ALL LAYERS
    SAVE DRAWDOWN FOR ALL LAYERS
    SAVE BUDGET
    PRINT HEAD FOR ALL LAYERS
    PRINT BUDGET
 UBDSV1 SAVING "         STORAGE" ON UNIT  53 AT TIME STEP 26, STRESS PERIOD   2
 UBDSV2 SAVING "   CONSTANT HEAD" ON UNIT  53 AT TIME STEP 26, STRESS PERIOD   2
 UBDSV1 SAVING "FLOW RIGHT FACE " ON UNIT  53 AT TIME STEP 26, STRESS PERIOD   2
 UBDSV1 SAVING "FLOW FRONT FACE " ON UNIT  53 AT TIME STEP 26, STRESS PERIOD   2
1
              HEAD IN LAYER   1 AT END OF TIME STEP  26 IN STRESS PERIOD    2
  ---------------------------------------------------------------------------

            1           2           3           4           5           6           7           8           9          10
           11          12          13          14          15          16          17          18          19          20
           21          22          23          24          25          26          27          28          29          30
           31          32          33          34          35          36          37          38          39          40
           41          42          43          44          45          46          47          48          49          50
 ........................................................................................................................
   1    10.00       9.959       9.904       9.848       9.802       9.746       9.691       9.633       9.555       9.492    
        9.454       9.416       9.374       9.333       9.265       9.191       9.111       9.048       9.019       8.987    
        8.948       8.913       8.878       8.832       8.769       8.658       8.524       8.394       8.243       8.093    
        7.881       7.543       7.146       6.728       6.260       5.828       5.462       5.122       4.657       4.153    
        3.723       3.298       2.712       2.156       1.767       1.377       1.050      0.8386      0.5561       0.000    
   2    10.00       9.959       9.909       9.854       9.805       9.752       9.691       9.615       9.541       9.492    
        9.458       9.424       9.392       9.340       9.262       9.186       9.113       9.051       9.020       8.984    
        8.944       8.917       8.889       8.841       8.768       8.663       8.528       8.392       8.251       8.101    
        7.871       7.523       7.106       6.634       6.162       5.745       5.418       5.084       4.613       4.141    
        3.707       3.195       2.666       2.225       1.838       1.475       1.101      0.7964      0.4252       0.000    
   3    10.00       9.955       9.907       9.857       9.807       9.747       9.671       9.599       9.551       9.507    
        9.468       9.438       9.406       9.357       9.280       9.185       9.108       9.057       9.018       8.982    
        8.948       8.920       8.892       8.832       8.755       8.648       8.521       8.418       8.269       8.091    
        7.795       7.392       6.951       6.494       6.058       5.669       5.376       5.033       4.525       4.065    
        3.704       3.236       2.747       2.323       1.921       1.553       1.111      0.6834      0.3005       0.000    
   4    10.00       9.959       9.910       9.855       9.793       9.725       9.652       9.598       9.558       9.516    
        9.482       9.457       9.422       9.369       9.298       9.195       9.108       9.061       9.019       8.985    
        8.948       8.914       8.878       8.815       8.737       8.634       8.511       8.397       8.281       8.059    
        7.679       7.190       6.720       6.371       6.043       5.664       5.287       4.853       4.424       4.087    
        3.764       3.348       2.857       2.438       2.015       1.570       1.060      0.6069      0.2827       0.000    
   5    10.00       9.956       9.904       9.841       9.778       9.714       9.651       9.605       9.563       9.527    
        9.497       9.471       9.430       9.368       9.286       9.192       9.118       9.066       9.024       8.977    
        8.934       8.900       8.855       8.790       8.717       8.600       8.478       8.380       8.264       7.984    
        7.490       6.958       6.570       6.304       6.006       5.620       5.191       4.763       4.456       4.169    
        3.875       3.445       2.931       2.564       2.134       1.550      0.9649      0.5602      0.2818       0.000    
   6    10.00       9.945       9.884       9.835       9.775       9.709       9.655       9.614       9.571       9.538    
        9.510       9.478       9.425       9.354       9.284       9.206       9.127       9.063       9.010       8.957    
        8.918       8.882       8.841       8.772       8.665       8.554       8.462       8.356       8.164       7.767    
        7.223       6.745       6.449       6.246       6.003       5.581       5.114       4.769       4.543       4.289    
        4.001       3.610       3.099       2.641       2.108       1.483      0.8651      0.4926      0.2752       0.000    
   7    10.00       9.929       9.872       9.824       9.767       9.720       9.668       9.626       9.589       9.554    
        9.518       9.472       9.408       9.339       9.276       9.212       9.125       9.040       8.983       8.939    
        8.901       8.863       8.820       8.731       8.621       8.530       8.431       8.265       7.949       7.449    
        6.934       6.561       6.375       6.215       5.909       5.495       5.184       4.879       4.629       4.451    
        4.157       3.752       3.202       2.609       1.952       1.235      0.7250      0.5001      0.2532       0.000    
   8    10.00       9.925       9.872       9.821       9.770       9.728       9.684       9.643       9.607       9.573    
        9.522       9.455       9.389       9.329       9.269       9.191       9.089       9.009       8.965       8.923    
        8.879       8.846       8.778       8.685       8.587       8.482       8.298       8.037       7.613       7.182    
        6.795       6.494       6.350       6.155       5.814       5.493       5.233       5.007       4.802       4.589    
        4.284       3.782       3.147       2.471       1.723       1.115      0.7672      0.4906      0.2260       0.000    
   9    10.00       9.929       9.869       9.819       9.782       9.747       9.704       9.664       9.624       9.585    
        9.521       9.440       9.371       9.310       9.240       9.153       9.061       8.990       8.944       8.900    
        8.860       8.808       8.715       8.630       8.532       8.389       8.127       7.739       7.321       7.011    
        6.703       6.476       6.313       6.056       5.740       5.489       5.302       5.125       4.948       4.715    
        4.335       3.810       3.134       2.378       1.689       1.154      0.7825      0.4865      0.2412       0.000    
  10    10.00       9.928       9.867       9.826       9.794       9.759       9.722       9.687       9.641       9.580    
        9.503       9.421       9.355       9.288       9.215       9.115       9.023       8.966       8.924       8.880    
        8.839       8.755       8.656       8.563       8.432       8.224       7.843       7.420       7.085       6.850    
        6.661       6.470       6.258       5.994       5.719       5.523       5.377       5.230       5.031       4.760    
        4.350       3.774       3.051       2.375       1.829       1.322      0.8377      0.5164      0.2721       0.000    
  11    10.00       9.918       9.872       9.837       9.805       9.774       9.742       9.695       9.631       9.563    
        9.486       9.407       9.343       9.257       9.157       9.070       9.003       8.949       8.908       8.859    
        8.788       8.681       8.544       8.408       8.185       7.881       7.541       7.252       6.975       6.798    
        6.639       6.397       6.153       5.956       5.767       5.616       5.468       5.277       5.042       4.724    
        4.339       3.828       3.093       2.475       1.990       1.502      0.9645      0.5112      0.2052       0.000    
  12    10.00       9.925       9.880       9.843       9.816       9.785       9.749       9.687       9.611       9.542    
        9.470       9.392       9.307       9.204       9.122       9.048       8.978       8.932       8.881       8.809    
        8.675       8.497       8.306       8.107       7.833       7.597       7.408       7.116       6.881       6.733    
        6.561       6.339       6.138       5.967       5.838       5.700       5.522       5.305       5.023       4.687    
        4.307       3.806       3.131       2.577       2.137       1.609       1.014      0.4831      0.1606       0.000    
  13    10.00       9.942       9.900       9.860       9.826       9.790       9.738       9.662       9.584       9.517    
        9.441       9.364       9.277       9.171       9.077       9.003       8.954       8.896       8.826       8.667    
        8.428       8.211       8.003       7.754       7.537       7.424       7.197       6.931       6.802       6.673    
        6.485       6.288       6.138       6.011       5.901       5.774       5.567       5.295       5.016       4.667    
        4.287       3.775       3.078       2.560       2.151       1.573      0.9439      0.4368      0.1262       0.000    
  14    10.00       9.957       9.919       9.878       9.837       9.783       9.708       9.629       9.560       9.484    
        9.409       9.338       9.236       9.120       9.036       8.975       8.898       8.816       8.658       8.381    
        8.124       7.927       7.653       7.445       7.341       7.214       6.981       6.821       6.698       6.574    
        6.410       6.275       6.178       6.066       5.949       5.814       5.582       5.281       4.980       4.625    
        4.215       3.598       2.941       2.523       2.022       1.468      0.9314      0.3991      0.1027       0.000    
  15    10.00       9.967       9.928       9.887       9.840       9.760       9.668       9.600       9.531       9.458    
        9.402       9.320       9.187       9.062       8.986       8.887       8.786       8.681       8.418       8.091    
        7.874       7.596       7.340       7.256       7.187       7.026       6.836       6.679       6.587       6.492    
        6.381       6.296       6.213       6.117       5.990       5.823       5.555       5.213       4.896       4.567    
        4.123       3.521       2.951       2.388       1.783       1.288      0.8012      0.3519      0.1056       0.000    
  16    10.00       9.976       9.938       9.890       9.817       9.719       9.641       9.585       9.523       9.449    
        9.374       9.261       9.110       8.990       8.883       8.767       8.696       8.492       8.109       7.802    
        7.578       7.298       7.195       7.139       7.020       6.818       6.663       6.583       6.541       6.470    
        6.383       6.310       6.244       6.142       5.988       5.782       5.461       5.148       4.896       4.539    
        4.034       3.385       2.732       2.108       1.595       1.105      0.6829      0.3342      0.1127       0.000    
  17    10.00       9.976       9.937       9.874       9.784       9.686       9.621       9.570       9.503       9.421    
        9.300       9.157       9.022       8.892       8.760       8.648       8.481       8.139       7.773       7.554    
        7.330       7.149       7.068       6.951       6.764       6.611       6.564       6.544       6.512       6.444    
        6.373       6.313       6.252       6.159       5.947       5.662       5.384       5.159       4.916       4.467    
        3.793       3.134       2.512       1.901       1.363      0.8939      0.5725      0.2989      0.1228       0.000    
  18    10.00       9.970       9.925       9.850       9.738       9.661       9.609       9.541       9.465       9.354    
        9.209       9.083       8.947       8.775       8.603       8.418       8.172       7.818       7.537       7.340    
        7.153       6.999       6.875       6.709       6.578       6.532       6.516       6.505       6.468       6.414    
        6.364       6.312       6.239       6.088       5.866       5.620       5.380       5.177       4.838       4.241    
        3.553       2.854       2.193       1.693       1.265      0.8381      0.4917      0.2472      0.1185       0.000    
  19    10.00       9.963       9.914       9.806       9.695       9.649       9.593       9.510       9.417       9.299    
        9.167       9.049       8.856       8.596       8.389       8.197       7.894       7.563       7.368       7.214    
        7.019       6.832       6.696       6.565       6.498       6.478       6.467       6.444       6.408       6.379    
        6.346       6.296       6.192       6.039       5.846       5.604       5.381       5.091       4.518       3.902    
        3.350       2.630       2.003       1.606       1.182      0.7560      0.4439      0.2517      0.1289       0.000    
  20    10.00       9.955       9.873       9.762       9.682       9.633       9.573       9.485       9.382       9.275    
        9.140       8.961       8.674       8.414       8.228       7.986       7.680       7.495       7.315       7.099    
        6.883       6.715       6.573       6.478       6.429       6.403       6.372       6.360       6.340       6.331    
        6.312       6.264       6.153       6.001       5.799       5.584       5.307       4.782       4.167       3.679    
        3.083       2.422       1.954       1.571       1.143      0.6706      0.3875      0.2619      0.1350       0.000    
  21    10.00       9.926       9.838       9.746       9.667       9.616       9.552       9.450       9.348       9.247    
        9.069       8.796       8.502       8.303       8.092       7.835       7.604       7.427       7.209       6.979    
        6.770       6.604       6.479       6.380       6.313       6.264       6.247       6.253       6.252       6.258    
        6.258       6.204       6.086       5.934       5.726       5.487       5.058       4.508       4.020       3.428    
        2.866       2.346       1.951       1.564      0.9619      0.5424      0.3920      0.2958      0.1418       0.000    
  22    10.00       9.907       9.802       9.720       9.658       9.597       9.506       9.413       9.323       9.185    
        8.957       8.648       8.411       8.230       7.992       7.726       7.501       7.311       7.109       6.890    
        6.681       6.506       6.340       6.190       6.104       6.085       6.102       6.117       6.150       6.168    
        6.173       6.110       6.007       5.845       5.628       5.390       4.946       4.410       3.773       3.203    
        2.796       2.381       1.906       1.259      0.7492      0.5404      0.4107      0.2734      0.1011       0.000    
  23    10.00       9.880       9.778       9.714       9.649       9.559       9.461       9.391       9.278       9.105    
        8.837       8.571       8.400       8.174       7.863       7.594       7.415       7.259       7.069       6.833    
        6.613       6.408       6.171       5.892       5.687       5.731       5.865       5.954       6.030       6.077    
        6.081       6.026       5.923       5.773       5.565       5.290       4.840       4.179       3.544       3.142    
        2.768       2.245       1.567       1.013      0.7367      0.5508      0.3939      0.2323      9.2441E-02   0.000    
  24    10.00       9.863       9.789       9.712       9.621       9.527       9.451       9.373       9.265       9.035    
        8.782       8.585       8.391       8.089       7.744       7.549       7.398       7.244       7.029       6.806    
        6.611       6.352       5.972       5.442       4.794       5.066       5.468       5.746       5.905       5.981    
        5.999       5.950       5.858       5.692       5.467       5.130       4.566       3.944       3.467       3.048    
        2.590       2.009       1.404      0.9816      0.7377      0.5363      0.3592      0.2516      0.1235       0.000    
  25    10.00       9.879       9.803       9.707       9.611       9.525       9.450       9.378       9.215       8.991    
        8.795       8.595       8.340       8.005       7.750       7.577       7.406       7.221       7.024       6.833    
        6.608       6.361       5.820       4.809       2.999       4.360       5.100       5.537       5.800       5.921    
        5.943       5.900       5.797       5.577       5.278       4.836       4.314       3.827       3.416       2.924    
        2.371       1.818       1.309      0.9725      0.7645      0.5572      0.3784      0.2635      0.1640       0.000    
  26    10.00       9.895       9.822       9.721       9.618       9.540       9.459       9.353       9.191       9.034    
        8.851       8.575       8.262       7.990       7.797       7.630       7.433       7.206       7.015       6.855    
        6.669       6.427       5.963       5.225       4.404       4.767       5.222       5.549       5.790       5.909    
        5.909       5.855       5.707       5.452       5.128       4.709       4.137       3.679       3.298       2.706    
        2.084       1.599       1.296       1.062      0.8244      0.6015      0.4124      0.2862      0.1672       0.000    
  27    10.00       9.917       9.827       9.736       9.647       9.554       9.464       9.356       9.221       9.077    
        8.843       8.530       8.255       8.031       7.870       7.679       7.422       7.186       7.038       6.908    
        6.764       6.543       6.195       5.767       5.336       5.322       5.501       5.711       5.877       5.923    
        5.892       5.822       5.654       5.379       5.005       4.446       3.917       3.545       2.975       2.360    
        1.880       1.569       1.341       1.136      0.9013      0.6565      0.4480      0.3149      0.1987       0.000    
  28    10.00       9.923       9.849       9.766       9.679       9.580       9.479       9.375       9.257       9.087    
        8.811       8.537       8.297       8.078       7.908       7.719       7.511       7.288       7.083       6.950    
        6.837       6.681       6.460       6.157       5.902       5.758       5.800       5.924       5.966       5.950    
        5.887       5.785       5.581       5.243       4.760       4.192       3.748       3.235       2.648       2.216    
        1.876       1.613       1.389       1.175      0.9469      0.7163      0.5082      0.3586      0.2049       0.000    
  29    10.00       9.928       9.856       9.791       9.705       9.615       9.517       9.409       9.279       9.049    
        8.790       8.557       8.328       8.144       7.950       7.750       7.562       7.385       7.193       7.022    
        6.901       6.783       6.640       6.463       6.226       6.110       6.095       6.092       6.071       5.984    
        5.870       5.689       5.454       5.024       4.456       3.975       3.538       3.011       2.547       2.232    
        1.956       1.668       1.415       1.210       1.004      0.7574      0.5369      0.3746      0.2077       0.000    
  30    10.00       9.937       9.877       9.820       9.743       9.654       9.566       9.442       9.265       9.055    
        8.793       8.538       8.351       8.164       7.980       7.800       7.650       7.489       7.305       7.124    
        6.979       6.879       6.761       6.643       6.514       6.398       6.345       6.250       6.156       6.010    
        5.802       5.514       5.206       4.771       4.341       3.900       3.437       2.949       2.600       2.316    
        1.989       1.701       1.480       1.247       1.002      0.7837      0.5722      0.3978      0.2235       0.000    
  31    10.00       9.950       9.901       9.846       9.788       9.716       9.614       9.459       9.256       9.034    
        8.780       8.552       8.380       8.198       8.027       7.861       7.714       7.588       7.402       7.223    
        7.092       6.987       6.893       6.794       6.708       6.598       6.484       6.371       6.208       5.984    
        5.661       5.317       5.017       4.681       4.279       3.817       3.354       2.958       2.714       2.443    
        2.080       1.764       1.513       1.276       1.049      0.8242      0.6062      0.4186      0.2167       0.000    
  32    10.00       9.957       9.921       9.873       9.818       9.749       9.639       9.458       9.273       9.062    
        8.800       8.589       8.427       8.238       8.054       7.917       7.792       7.644       7.494       7.321    
        7.184       7.073       6.978       6.877       6.784       6.701       6.571       6.412       6.187       5.884    
        5.533       5.213       4.919       4.607       4.217       3.804       3.443       3.107       2.828       2.516    
        2.181       1.869       1.605       1.334       1.086      0.8959      0.6682      0.4106      0.1833       0.000    
  33    10.00       9.963       9.935       9.894       9.838       9.763       9.619       9.439       9.290       9.099    
        8.859       8.658       8.465       8.250       8.086       7.975       7.866       7.715       7.552       7.397    
        7.246       7.128       7.006       6.902       6.827       6.743       6.574       6.342       6.103       5.823    
        5.483       5.207       4.908       4.534       4.175       3.814       3.522       3.257       2.938       2.596    
        2.307       2.012       1.722       1.442       1.182      0.9697      0.7146      0.4124      0.1792       0.000    
  34    10.00       9.969       9.948       9.913       9.838       9.727       9.593       9.468       9.313       9.124    
        8.917       8.696       8.475       8.263       8.132       8.043       7.925       7.777       7.591       7.437    
        7.296       7.144       7.015       6.919       6.840       6.716       6.512       6.295       6.052       5.728    
        5.431       5.216       4.918       4.561       4.213       3.884       3.609       3.346       3.019       2.711    
        2.454       2.171       1.854       1.575       1.311       1.068      0.7640      0.4638      0.2432       0.000    
  35    10.00       9.974       9.947       9.897       9.804       9.694       9.598       9.490       9.363       9.156    
        8.926       8.701       8.476       8.305       8.192       8.097       7.967       7.808       7.622       7.440    
        7.273       7.127       6.997       6.906       6.819       6.693       6.479       6.226       5.943       5.609    
        5.391       5.162       4.869       4.610       4.321       3.980       3.680       3.461       3.155       2.828    
        2.580       2.290       1.973       1.698       1.424       1.158      0.8756      0.5803      0.2871       0.000    
  36    10.00       9.968       9.924       9.869       9.782       9.680       9.599       9.504       9.365       9.162    
        8.908       8.666       8.507       8.382       8.269       8.144       7.988       7.822       7.616       7.359    
        7.178       7.066       6.957       6.880       6.795       6.636       6.393       6.120       5.775       5.486    
        5.307       5.123       4.876       4.630       4.391       4.088       3.792       3.561       3.288       2.932    
        2.660       2.337       2.021       1.811       1.545       1.249      0.9658      0.6572      0.3215       0.000    
  37    10.00       9.950       9.903       9.847       9.762       9.672       9.579       9.488       9.358       9.119    
        8.852       8.669       8.578       8.455       8.312       8.184       7.983       7.772       7.497       7.229    
        7.122       7.027       6.922       6.835       6.732       6.535       6.291       5.928       5.621       5.441    
        5.292       5.100       4.860       4.668       4.426       4.140       3.909       3.688       3.382       2.991    
        2.635       2.332       2.112       1.895       1.628       1.347       1.064      0.7248      0.3980       0.000    
  38    10.00       9.943       9.882       9.823       9.747       9.661       9.561       9.462       9.311       9.085    
        8.886       8.743       8.626       8.511       8.351       8.131       7.898       7.644       7.333       7.164    
        7.079       6.951       6.836       6.766       6.643       6.429       6.071       5.738       5.584       5.451    
        5.295       5.095       4.880       4.691       4.456       4.197       4.008       3.783       3.393       2.962    
        2.654       2.401       2.183       1.959       1.723       1.437       1.155      0.8382      0.4142       0.000    
  39    10.00       9.926       9.866       9.812       9.739       9.640       9.534       9.430       9.287       9.102    
        8.945       8.835       8.701       8.537       8.291       8.007       7.744       7.443       7.227       7.124    
        6.986       6.836       6.749       6.681       6.559       6.271       5.921       5.731       5.595       5.458    
        5.282       5.095       4.889       4.701       4.524       4.313       4.065       3.792       3.408       3.007    
        2.681       2.420       2.249       2.061       1.795       1.513       1.226      0.8725      0.4088       0.000    
  40    10.00       9.918       9.860       9.804       9.728       9.625       9.521       9.418       9.291       9.136    
        9.006       8.907       8.732       8.465       8.150       7.865       7.586       7.332       7.180       7.042    
        6.879       6.752       6.683       6.592       6.429       6.172       5.944       5.759       5.608       5.466    
        5.295       5.095       4.903       4.747       4.592       4.378       4.092       3.808       3.417       2.988    
        2.683       2.476       2.287       2.127       1.847       1.538       1.276      0.8750      0.4073       0.000    
  41    10.00       9.924       9.857       9.790       9.707       9.626       9.538       9.442       9.316       9.174    
        9.049       8.923       8.688       8.364       8.040       7.775       7.503       7.263       7.112       6.959    
        6.796       6.687       6.606       6.499       6.333       6.145       5.994       5.817       5.628       5.463    
        5.300       5.121       4.938       4.803       4.638       4.425       4.139       3.747       3.299       2.968    
        2.747       2.547       2.352       2.128       1.837       1.541       1.317      0.9322      0.4227       0.000    
  42    10.00       9.924       9.847       9.787       9.727       9.651       9.558       9.447       9.339       9.228    
        9.063       8.840       8.565       8.256       7.954       7.713       7.447       7.216       7.051       6.879    
        6.728       6.630       6.540       6.443       6.297       6.169       6.043       5.841       5.631       5.482    
        5.350       5.155       4.960       4.829       4.677       4.450       4.099       3.636       3.226       2.980    
        2.813       2.635       2.386       2.088       1.809       1.577       1.345      0.9833      0.4851       0.000    
  43    10.00       9.917       9.852       9.801       9.752       9.679       9.586       9.481       9.358       9.181    
        8.963       8.731       8.475       8.153       7.884       7.661       7.421       7.187       6.979       6.818    
        6.683       6.586       6.511       6.432       6.310       6.179       6.051       5.842       5.659       5.551    
        5.390       5.180       4.992       4.858       4.680       4.387       3.981       3.543       3.244       3.055    
        2.878       2.673       2.367       2.062       1.815       1.592       1.391      0.9972      0.4557       0.000    
  44    10.00       9.916       9.860       9.813       9.754       9.699       9.622       9.479       9.293       9.087    
        8.903       8.669       8.359       8.090       7.876       7.619       7.357       7.107       6.901       6.761    
        6.663       6.581       6.506       6.426       6.321       6.187       6.015       5.842       5.720       5.591    
        5.447       5.264       5.049       4.844       4.627       4.299       3.873       3.513       3.282       3.100    
        2.921       2.677       2.382       2.118       1.854       1.614       1.369      0.9002      0.4140       0.000    
  45    10.00       9.926       9.873       9.812       9.755       9.706       9.578       9.406       9.217       9.040    
        8.888       8.575       8.253       8.057       7.825       7.540       7.254       7.023       6.857       6.748    
        6.674       6.597       6.516       6.421       6.304       6.174       6.028       5.896       5.789       5.655    
        5.488       5.299       5.077       4.818       4.560       4.206       3.807       3.524       3.348       3.160    
        2.922       2.643       2.390       2.149       1.915       1.676       1.278      0.8000      0.4026       0.000    
  46    10.00       9.940       9.883       9.812       9.746       9.650       9.509       9.378       9.220       9.031    
        8.777       8.478       8.221       7.973       7.725       7.448       7.183       7.013       6.877       6.772    
        6.698       6.623       6.519       6.402       6.289       6.179       6.065       5.945       5.836       5.718    
        5.568       5.368       5.116       4.810       4.440       4.073       3.779       3.578       3.395       3.199    
        2.917       2.620       2.368       2.177       1.954       1.643       1.190      0.7641      0.3767       0.000    
  47    10.00       9.951       9.897       9.826       9.712       9.586       9.465       9.363       9.217       8.966    
        8.662       8.388       8.164       7.957       7.694       7.393       7.159       6.998       6.889       6.801    
        6.721       6.633       6.524       6.401       6.291       6.205       6.111       5.992       5.867       5.752    
        5.620       5.453       5.119       4.689       4.329       4.065       3.818       3.646       3.484       3.213    
        2.869       2.555       2.327       2.195       1.948       1.567       1.125      0.7370      0.3724       0.000    
  48    10.00       9.956       9.900       9.795       9.677       9.568       9.447       9.343       9.195       8.912    
        8.581       8.351       8.168       7.913       7.607       7.336       7.160       6.998       6.890       6.821    
        6.739       6.633       6.516       6.403       6.314       6.245       6.161       6.030       5.885       5.760    
        5.623       5.421       5.073       4.717       4.395       4.105       3.885       3.708       3.500       3.156    
        2.787       2.545       2.363       2.130       1.806       1.468       1.089      0.7423      0.3930       0.000    
  49    10.00       9.953       9.869       9.767       9.679       9.561       9.443       9.333       9.147       8.847    
        8.551       8.332       8.102       7.845       7.614       7.361       7.117       6.966       6.900       6.835    
        6.757       6.636       6.500       6.402       6.334       6.283       6.187       6.035       5.883       5.770    
        5.621       5.356       5.049       4.796       4.527       4.206       3.922       3.703       3.459       3.091    
        2.793       2.581       2.330       1.994       1.707       1.402       1.071      0.7545      0.3842       0.000    
  50    10.00       9.941       9.848       9.755       9.684       9.574       9.444       9.304       9.102       8.865    
        8.565       8.271       8.032       7.827       7.642       7.358       7.080       6.966       6.908       6.845    
        6.770       6.633       6.488       6.400       6.346       6.299       6.191       6.027       5.883       5.767    
        5.604       5.326       5.090       4.873       4.582       4.263       3.974       3.684       3.333       3.007    
        2.849       2.626       2.260       1.923       1.682       1.392       1.104      0.7369      0.3027       0.000    

 HEAD WILL BE SAVED ON UNIT   51 AT END OF TIME STEP  26, STRESS PERIOD    2

 DRAWDOWN WILL BE SAVED ON UNIT   52 AT END OF TIME STEP  26, STRESS PERIOD    2
1
  VOLUMETRIC BUDGET FOR ENTIRE MODEL AT END OF TIME STEP 26 IN STRESS PERIOD   2
  ------------------------------------------------------------------------------

     CUMULATIVE VOLUMES      L**3       RATES FOR THIS TIME STEP      L**3/T
     ------------------                 ------------------------

           IN:                                      IN:
           ---                                      ---
             STORAGE =       12964.8184               STORAGE =         493.9210
       CONSTANT HEAD =       14612.0479         CONSTANT HEAD =         545.9159
               WELLS =           0.0000                 WELLS =           0.0000

            TOTAL IN =       27576.8672              TOTAL IN =        1039.8369

          OUT:                                     OUT:
          ----                                     ----
             STORAGE =       9.3745E-03               STORAGE =           0.0000
       CONSTANT HEAD =       14576.8535         CONSTANT HEAD =         539.8370
               WELLS =       13000.0000                 WELLS =         500.0000

           TOTAL OUT =       27576.8633             TOTAL OUT =        1039.8369

            IN - OUT =       3.9063E-03              IN - OUT =           0.0000

 PERCENT DISCREPANCY =           0.00     PERCENT DISCREPANCY =           0.00






          TIME SUMMARY AT END OF TIME STEP  26 IN STRESS PERIOD    2
                    SECONDS     MINUTES      HOURS       DAYS        YEARS
                    -----------------------------------------------------------
   TIME STEP LENGTH  86400.      1440.0      24.000      1.0000     2.73785E-03
 STRESS PERIOD TIME 2.24640E+06  37440.      624.00      26.000     7.11841E-02
         TOTAL TIME 2.33280E+06  38880.      648.00      27.000     7.39220E-02
1
 
 SOLVING FOR HEAD 

 OUTPUT CONTROL FOR STRESS PERIOD    2   TIME STEP  27
    SAVE HEAD FOR ALL LAYERS
    SAVE DRAWDOWN FOR ALL LAYERS
    SAVE BUDGET
    PRINT HEAD FOR ALL LAYERS
    PRINT BUDGET
 UBDSV1 SAVING "         STORAGE" ON UNIT  53 AT TIME STEP 27, STRESS PERIOD   2
 UBDSV2 SAVING "   CONSTANT HEAD" ON UNIT  53 AT TIME STEP 27, STRESS PERIOD   2
 UBDSV1 SAVING "FLOW RIGHT FACE " ON UNIT  53 AT TIME STEP 27, STRESS PERIOD   2
 UBDSV1 SAVING "FLOW FRONT FACE " ON UNIT  53 AT TIME STEP 27, STRESS PERIOD   2
1
              HEAD IN LAYER   1 AT END OF TIME STEP  27 IN STRESS PERIOD    2
  ---------------------------------------------------------------------------

            1           2           3           4           5           6           7           8           9          10
           11          12          13          14          15          16          17          18          19          20
           21          22          23          24          25          26          27          28          29          30
           31          32          33          34          35          36          37          38          39          40
           41          42          43          44          45          46          47          48          49          50
 ........................................................................................................................
   1    10.00       9.959       9.903       9.848       9.802       9.745       9.690       9.632       9.554       9.491    
        9.453       9.415       9.373       9.331       9.264       9.190       9.109       9.046       9.018       8.986    
        8.946       8.912       8.876       8.831       8.767       8.656       8.523       8.392       8.242       8.092    
        7.880       7.542       7.145       6.727       6.259       5.827       5.461       5.121       4.656       4.152    
        3.723       3.298       2.712       2.156       1.767       1.377       1.050      0.8385      0.5560       0.000    
   2    10.00       9.959       9.909       9.853       9.804       9.752       9.691       9.615       9.540       9.491    
        9.457       9.423       9.391       9.339       9.261       9.185       9.111       9.049       9.018       8.982    
        8.942       8.916       8.887       8.839       8.766       8.661       8.526       8.390       8.249       8.100    
        7.870       7.522       7.105       6.633       6.161       5.745       5.417       5.083       4.613       4.140    
        3.707       3.195       2.666       2.225       1.838       1.474       1.101      0.7963      0.4251       0.000    
   3    10.00       9.955       9.907       9.856       9.807       9.747       9.670       9.598       9.551       9.506    
        9.467       9.437       9.405       9.356       9.279       9.184       9.106       9.055       9.016       8.980    
        8.946       8.918       8.890       8.830       8.753       8.646       8.519       8.417       8.267       8.090    
        7.794       7.391       6.950       6.493       6.057       5.668       5.375       5.032       4.524       4.064    
        3.703       3.236       2.747       2.323       1.920       1.553       1.111      0.6833      0.3005       0.000    
   4    10.00       9.959       9.910       9.855       9.793       9.724       9.651       9.598       9.557       9.515    
        9.481       9.456       9.421       9.368       9.297       9.193       9.107       9.059       9.018       8.983    
        8.946       8.912       8.877       8.813       8.735       8.632       8.509       8.395       8.279       8.058    
        7.678       7.188       6.718       6.369       6.042       5.663       5.286       4.852       4.423       4.086    
        3.763       3.348       2.857       2.438       2.015       1.570       1.060      0.6069      0.2826       0.000    
   5    10.00       9.956       9.904       9.841       9.777       9.713       9.650       9.604       9.562       9.526    
        9.496       9.470       9.429       9.367       9.285       9.190       9.117       9.065       9.022       8.975    
        8.932       8.898       8.853       8.788       8.714       8.598       8.476       8.378       8.262       7.982    
        7.489       6.956       6.568       6.302       6.004       5.619       5.189       4.761       4.455       4.168    
        3.874       3.444       2.931       2.564       2.133       1.550      0.9648      0.5602      0.2817       0.000    
   6    10.00       9.945       9.884       9.835       9.775       9.708       9.655       9.614       9.570       9.537    
        9.509       9.477       9.424       9.353       9.283       9.205       9.125       9.061       9.007       8.954    
        8.916       8.880       8.838       8.770       8.662       8.551       8.460       8.353       8.162       7.764    
        7.220       6.742       6.446       6.243       6.001       5.579       5.112       4.767       4.541       4.288    
        4.000       3.609       3.098       2.641       2.108       1.483      0.8651      0.4926      0.2752       0.000    
   7    10.00       9.929       9.872       9.824       9.767       9.719       9.668       9.625       9.588       9.553    
        9.517       9.471       9.407       9.338       9.275       9.211       9.123       9.038       8.981       8.937    
        8.899       8.860       8.817       8.728       8.618       8.528       8.428       8.262       7.946       7.446    
        6.930       6.557       6.371       6.211       5.905       5.492       5.181       4.876       4.627       4.449    
        4.156       3.750       3.202       2.609       1.952       1.235      0.7249      0.5001      0.2532       0.000    
   8    10.00       9.925       9.872       9.821       9.769       9.727       9.683       9.642       9.607       9.573    
        9.521       9.454       9.388       9.327       9.268       9.189       9.086       9.006       8.962       8.920    
        8.876       8.843       8.775       8.681       8.584       8.478       8.295       8.034       7.608       7.177    
        6.790       6.489       6.345       6.151       5.810       5.489       5.229       5.004       4.800       4.587    
        4.282       3.780       3.146       2.470       1.722       1.115      0.7671      0.4905      0.2260       0.000    
   9    10.00       9.928       9.869       9.819       9.782       9.746       9.704       9.663       9.623       9.584    
        9.520       9.438       9.370       9.309       9.238       9.150       9.058       8.987       8.941       8.897    
        8.857       8.804       8.712       8.626       8.528       8.384       8.122       7.733       7.314       7.004    
        6.696       6.470       6.308       6.051       5.735       5.484       5.297       5.121       4.945       4.713    
        4.333       3.809       3.133       2.378       1.689       1.154      0.7825      0.4865      0.2412       0.000    
  10    10.00       9.927       9.867       9.826       9.793       9.759       9.722       9.686       9.640       9.579    
        9.501       9.420       9.353       9.287       9.213       9.113       9.020       8.963       8.921       8.877    
        8.835       8.751       8.652       8.558       8.426       8.218       7.836       7.413       7.077       6.841    
        6.653       6.463       6.251       5.987       5.713       5.518       5.372       5.225       5.028       4.757    
        4.349       3.773       3.050       2.375       1.829       1.322      0.8377      0.5164      0.2721       0.000    
  11    10.00       9.918       9.872       9.837       9.804       9.774       9.741       9.694       9.630       9.562    
        9.485       9.405       9.341       9.254       9.155       9.067       9.000       8.946       8.904       8.856    
        8.784       8.677       8.538       8.402       8.178       7.871       7.531       7.242       6.965       6.789    
        6.630       6.388       6.145       5.948       5.761       5.610       5.463       5.273       5.038       4.721    
        4.337       3.827       3.093       2.475       1.990       1.502      0.9645      0.5112      0.2052       0.000    
  12    10.00       9.925       9.879       9.843       9.815       9.784       9.748       9.686       9.610       9.541    
        9.468       9.390       9.305       9.201       9.119       9.044       8.974       8.928       8.877       8.804    
        8.669       8.490       8.298       8.097       7.821       7.585       7.395       7.104       6.869       6.722    
        6.550       6.329       6.129       5.958       5.830       5.693       5.516       5.301       5.019       4.685    
        4.305       3.805       3.130       2.577       2.136       1.608       1.014      0.4831      0.1606       0.000    
  13    10.00       9.942       9.899       9.860       9.825       9.789       9.737       9.661       9.583       9.515    
        9.440       9.362       9.274       9.167       9.074       8.999       8.949       8.892       8.821       8.660    
        8.419       8.201       7.991       7.741       7.523       7.410       7.182       6.916       6.788       6.660    
        6.473       6.276       6.127       6.001       5.892       5.766       5.561       5.290       5.012       4.664    
        4.285       3.774       3.077       2.560       2.151       1.573      0.9439      0.4368      0.1262       0.000    
  14    10.00       9.957       9.919       9.878       9.836       9.782       9.707       9.628       9.558       9.482    
        9.407       9.336       9.233       9.116       9.031       8.970       8.893       8.810       8.651       8.371    
        8.111       7.913       7.637       7.428       7.324       7.197       6.964       6.804       6.682       6.559    
        6.395       6.262       6.166       6.055       5.939       5.805       5.575       5.275       4.976       4.622    
        4.213       3.597       2.941       2.522       2.022       1.468      0.9314      0.3991      0.1027       0.000    
  15    10.00       9.966       9.928       9.887       9.839       9.759       9.667       9.598       9.529       9.456    
        9.399       9.317       9.184       9.057       8.981       8.881       8.779       8.673       8.408       8.078    
        7.859       7.579       7.321       7.237       7.168       7.007       6.816       6.660       6.568       6.474    
        6.365       6.281       6.200       6.105       5.979       5.814       5.548       5.207       4.892       4.564    
        4.121       3.520       2.951       2.388       1.783       1.288      0.8011      0.3519      0.1056       0.000    
  16    10.00       9.976       9.938       9.890       9.816       9.718       9.640       9.583       9.522       9.447    
        9.372       9.257       9.105       8.984       8.876       8.759       8.688       8.482       8.095       7.785    
        7.559       7.277       7.175       7.119       6.999       6.797       6.642       6.562       6.521       6.451    
        6.366       6.294       6.229       6.129       5.977       5.773       5.454       5.143       4.892       4.536    
        4.032       3.384       2.731       2.107       1.595       1.105      0.6828      0.3342      0.1127       0.000    
  17    10.00       9.975       9.937       9.873       9.783       9.685       9.620       9.569       9.501       9.419    
        9.297       9.152       9.017       8.885       8.752       8.639       8.470       8.124       7.755       7.534    
        7.308       7.127       7.046       6.929       6.741       6.588       6.541       6.522       6.491       6.425    
        6.355       6.297       6.236       6.145       5.935       5.653       5.377       5.153       4.912       4.464    
        3.791       3.133       2.512       1.901       1.363      0.8939      0.5725      0.2989      0.1228       0.000    
  18    10.00       9.970       9.925       9.850       9.738       9.660       9.608       9.540       9.463       9.351    
        9.205       9.077       8.941       8.767       8.592       8.406       8.157       7.799       7.516       7.318    
        7.130       6.975       6.851       6.685       6.554       6.508       6.493       6.482       6.446       6.394    
        6.345       6.294       6.223       6.073       5.854       5.611       5.372       5.171       4.833       4.238    
        3.551       2.853       2.193       1.693       1.265      0.8381      0.4917      0.2472      0.1185       0.000    
  19    10.00       9.963       9.914       9.805       9.694       9.648       9.592       9.508       9.415       9.296    
        9.162       9.043       8.848       8.585       8.376       8.182       7.876       7.541       7.345       7.190    
        6.994       6.807       6.671       6.540       6.473       6.453       6.444       6.421       6.385       6.357    
        6.325       6.277       6.175       6.024       5.833       5.594       5.374       5.085       4.514       3.900    
        3.349       2.629       2.003       1.606       1.182      0.7560      0.4439      0.2517      0.1289       0.000    
  20    10.00       9.955       9.872       9.761       9.681       9.632       9.571       9.483       9.379       9.271    
        9.135       8.954       8.664       8.401       8.212       7.968       7.659       7.473       7.292       7.075    
        6.858       6.690       6.547       6.453       6.404       6.378       6.347       6.335       6.316       6.308    
        6.290       6.244       6.136       5.986       5.787       5.575       5.299       4.778       4.164       3.677    
        3.082       2.422       1.954       1.571       1.143      0.6706      0.3875      0.2619      0.1350       0.000    
  21    10.00       9.926       9.837       9.745       9.666       9.615       9.550       9.447       9.345       9.243    
        9.063       8.788       8.490       8.288       8.075       7.816       7.583       7.404       7.185       6.954    
        6.744       6.579       6.453       6.354       6.287       6.238       6.221       6.227       6.227       6.234    
        6.235       6.182       6.068       5.918       5.714       5.478       5.052       4.505       4.018       3.427    
        2.865       2.346       1.951       1.564      0.9619      0.5424      0.3920      0.2958      0.1418       0.000    
  22    10.00       9.907       9.801       9.719       9.657       9.596       9.505       9.410       9.320       9.180    
        8.950       8.637       8.398       8.215       7.974       7.705       7.479       7.287       7.085       6.865    
        6.656       6.480       6.314       6.163       6.078       6.058       6.075       6.091       6.124       6.143    
        6.149       6.088       5.988       5.830       5.616       5.380       4.940       4.406       3.772       3.202    
        2.796       2.381       1.906       1.259      0.7492      0.5404      0.4107      0.2734      0.1011       0.000    
  23    10.00       9.880       9.778       9.713       9.648       9.557       9.459       9.388       9.274       9.100    
        8.829       8.559       8.386       8.158       7.844       7.573       7.392       7.235       7.045       6.808    
        6.587       6.382       6.144       5.864       5.660       5.704       5.838       5.927       6.003       6.050    
        6.056       6.004       5.904       5.757       5.552       5.281       4.834       4.176       3.543       3.142    
        2.767       2.245       1.567       1.013      0.7367      0.5508      0.3939      0.2323      9.2440E-02   0.000    
  24    10.00       9.862       9.788       9.711       9.619       9.525       9.449       9.371       9.261       9.029    
        8.773       8.573       8.378       8.072       7.724       7.528       7.376       7.221       7.004       6.780    
        6.585       6.325       5.944       5.414       4.765       5.037       5.439       5.718       5.878       5.954    
        5.974       5.928       5.839       5.676       5.454       5.121       4.561       3.942       3.466       3.048    
        2.589       2.009       1.404      0.9815      0.7377      0.5363      0.3592      0.2516      0.1235       0.000    
  25    10.00       9.878       9.803       9.706       9.610       9.523       9.448       9.375       9.211       8.984    
        8.787       8.584       8.326       7.988       7.730       7.555       7.384       7.198       7.000       6.808    
        6.583       6.334       5.792       4.780       2.968       4.330       5.070       5.508       5.771       5.895    
        5.918       5.878       5.778       5.562       5.267       4.828       4.310       3.824       3.415       2.924    
        2.371       1.818       1.308      0.9724      0.7645      0.5572      0.3784      0.2635      0.1640       0.000    
  26    10.00       9.895       9.822       9.720       9.617       9.538       9.457       9.350       9.186       9.028    
        8.843       8.564       8.247       7.972       7.778       7.609       7.411       7.183       6.990       6.830    
        6.644       6.401       5.936       5.197       4.375       4.737       5.191       5.519       5.761       5.883    
        5.886       5.833       5.689       5.438       5.118       4.702       4.134       3.676       3.296       2.705    
        2.083       1.599       1.296       1.062      0.8244      0.6015      0.4124      0.2862      0.1672       0.000    
  27    10.00       9.916       9.826       9.735       9.646       9.552       9.461       9.352       9.216       9.071    
        8.835       8.519       8.241       8.014       7.852       7.659       7.400       7.163       7.014       6.883    
        6.739       6.517       6.168       5.739       5.307       5.292       5.471       5.681       5.848       5.898    
        5.869       5.801       5.636       5.366       4.996       4.440       3.914       3.543       2.974       2.359    
        1.879       1.569       1.341       1.136      0.9013      0.6565      0.4479      0.3149      0.1987       0.000    
  28    10.00       9.922       9.848       9.765       9.677       9.578       9.477       9.371       9.252       9.081    
        8.802       8.526       8.284       8.062       7.891       7.700       7.490       7.265       7.060       6.926    
        6.812       6.655       6.434       6.130       5.873       5.728       5.770       5.895       5.939       5.926    
        5.865       5.766       5.566       5.232       4.753       4.189       3.746       3.234       2.648       2.215    
        1.875       1.613       1.389       1.175      0.9469      0.7163      0.5082      0.3586      0.2049       0.000    
  29    10.00       9.928       9.855       9.790       9.704       9.613       9.515       9.406       9.274       9.043    
        8.782       8.547       8.316       8.129       7.934       7.732       7.543       7.364       7.171       6.999    
        6.877       6.758       6.614       6.437       6.198       6.082       6.067       6.065       6.045       5.962    
        5.850       5.673       5.442       5.016       4.452       3.973       3.537       3.011       2.546       2.231    
        1.956       1.668       1.415       1.210       1.004      0.7574      0.5369      0.3746      0.2077       0.000    
  30    10.00       9.937       9.877       9.819       9.742       9.653       9.564       9.439       9.261       9.049    
        8.785       8.528       8.338       8.151       7.964       7.783       7.632       7.470       7.284       7.102    
        6.955       6.856       6.736       6.618       6.489       6.372       6.321       6.226       6.134       5.991    
        5.786       5.502       5.197       4.766       4.338       3.898       3.436       2.949       2.600       2.316    
        1.989       1.701       1.480       1.247       1.002      0.7836      0.5722      0.3978      0.2235       0.000    
  31    10.00       9.950       9.900       9.845       9.787       9.714       9.613       9.456       9.252       9.028    
        8.772       8.542       8.369       8.185       8.012       7.845       7.697       7.570       7.383       7.203    
        7.071       6.965       6.871       6.772       6.686       6.577       6.463       6.350       6.189       5.968    
        5.649       5.309       5.011       4.677       4.277       3.816       3.353       2.958       2.714       2.443    
        2.080       1.764       1.513       1.276       1.049      0.8242      0.6062      0.4186      0.2167       0.000    
  32    10.00       9.956       9.921       9.873       9.817       9.748       9.638       9.456       9.269       9.057    
        8.793       8.580       8.417       8.226       8.040       7.903       7.776       7.627       7.476       7.302    
        7.164       7.052       6.957       6.857       6.765       6.682       6.551       6.394       6.172       5.873    
        5.525       5.207       4.915       4.604       4.215       3.803       3.442       3.107       2.827       2.516    
        2.181       1.869       1.605       1.334       1.086      0.8959      0.6682      0.4106      0.1833       0.000    
  33    10.00       9.963       9.935       9.894       9.837       9.762       9.617       9.437       9.287       9.095    
        8.853       8.651       8.456       8.239       8.074       7.962       7.852       7.699       7.535       7.379    
        7.228       7.109       6.988       6.884       6.809       6.726       6.558       6.329       6.092       5.815    
        5.477       5.203       4.904       4.532       4.174       3.813       3.521       3.257       2.938       2.596    
        2.307       2.012       1.722       1.442       1.182      0.9697      0.7146      0.4124      0.1792       0.000    
  34    10.00       9.969       9.948       9.912       9.837       9.726       9.591       9.466       9.310       9.120    
        8.911       8.689       8.467       8.254       8.122       8.031       7.912       7.764       7.576       7.422    
        7.280       7.129       7.000       6.904       6.825       6.702       6.499       6.284       6.043       5.722    
        5.427       5.212       4.916       4.560       4.212       3.883       3.609       3.346       3.019       2.711    
        2.454       2.171       1.854       1.575       1.311       1.068      0.7640      0.4638      0.2432       0.000    
  35    10.00       9.974       9.947       9.896       9.803       9.693       9.597       9.488       9.360       9.153    
        8.922       8.695       8.468       8.296       8.183       8.087       7.956       7.796       7.610       7.426    
        7.260       7.115       6.984       6.894       6.807       6.682       6.469       6.218       5.936       5.606    
        5.388       5.160       4.868       4.609       4.321       3.980       3.680       3.461       3.155       2.828    
        2.580       2.290       1.973       1.698       1.424       1.158      0.8756      0.5803      0.2870       0.000    
  36    10.00       9.968       9.924       9.868       9.781       9.679       9.598       9.503       9.363       9.159    
        8.904       8.661       8.501       8.374       8.261       8.135       7.979       7.812       7.606       7.348    
        7.168       7.057       6.948       6.871       6.786       6.628       6.386       6.114       5.772       5.484    
        5.305       5.122       4.876       4.630       4.391       4.088       3.791       3.561       3.288       2.932    
        2.660       2.337       2.021       1.811       1.545       1.249      0.9658      0.6572      0.3215       0.000    
  37    10.00       9.950       9.903       9.847       9.761       9.671       9.578       9.487       9.356       9.116    
        8.849       8.664       8.573       8.449       8.305       8.176       7.975       7.764       7.489       7.221    
        7.114       7.019       6.914       6.828       6.725       6.528       6.286       5.925       5.619       5.440    
        5.291       5.099       4.859       4.668       4.426       4.140       3.909       3.688       3.382       2.991    
        2.635       2.332       2.112       1.895       1.628       1.347       1.064      0.7248      0.3980       0.000    
  38    10.00       9.943       9.882       9.822       9.747       9.661       9.560       9.461       9.309       9.083    
        8.882       8.739       8.621       8.505       8.345       8.125       7.892       7.637       7.327       7.158    
        7.072       6.945       6.830       6.760       6.637       6.424       6.068       5.736       5.583       5.450    
        5.294       5.094       4.880       4.691       4.455       4.197       4.008       3.783       3.393       2.962    
        2.654       2.401       2.183       1.959       1.723       1.437       1.155      0.8382      0.4142       0.000    
  39    10.00       9.926       9.866       9.812       9.739       9.640       9.533       9.429       9.285       9.100    
        8.943       8.832       8.698       8.533       8.287       8.003       7.740       7.438       7.223       7.120    
        6.981       6.831       6.745       6.676       6.555       6.268       5.919       5.730       5.594       5.457    
        5.281       5.094       4.889       4.701       4.524       4.312       4.065       3.792       3.408       3.007    
        2.681       2.420       2.249       2.061       1.795       1.513       1.226      0.8725      0.4088       0.000    
  40    10.00       9.918       9.860       9.804       9.728       9.625       9.520       9.417       9.290       9.134    
        9.004       8.904       8.730       8.462       8.147       7.862       7.583       7.329       7.177       7.039    
        6.876       6.749       6.680       6.589       6.427       6.170       5.943       5.758       5.607       5.465    
        5.294       5.095       4.902       4.747       4.591       4.378       4.092       3.808       3.417       2.988    
        2.683       2.476       2.287       2.127       1.847       1.538       1.276      0.8750      0.4073       0.000    
  41    10.00       9.924       9.857       9.790       9.707       9.625       9.538       9.441       9.315       9.172    
        9.047       8.921       8.686       8.362       8.038       7.773       7.501       7.261       7.110       6.957    
        6.794       6.685       6.604       6.497       6.331       6.144       5.993       5.816       5.628       5.462    
        5.299       5.120       4.937       4.802       4.638       4.425       4.139       3.746       3.299       2.968    
        2.747       2.547       2.352       2.128       1.837       1.541       1.317      0.9322      0.4227       0.000    
  42    10.00       9.924       9.847       9.787       9.726       9.651       9.557       9.447       9.338       9.227    
        9.062       8.838       8.564       8.254       7.953       7.712       7.445       7.214       7.050       6.878    
        6.726       6.629       6.538       6.442       6.296       6.168       6.042       5.841       5.630       5.482    
        5.350       5.155       4.960       4.829       4.677       4.450       4.099       3.636       3.226       2.980    
        2.813       2.635       2.386       2.088       1.809       1.577       1.345      0.9833      0.4851       0.000    
  43    10.00       9.917       9.852       9.801       9.752       9.679       9.586       9.480       9.357       9.181    
        8.962       8.731       8.474       8.152       7.883       7.660       7.420       7.186       6.978       6.817    
        6.682       6.585       6.510       6.431       6.309       6.179       6.050       5.841       5.659       5.551    
        5.390       5.180       4.992       4.857       4.680       4.386       3.981       3.542       3.244       3.055    
        2.878       2.673       2.367       2.062       1.815       1.592       1.391      0.9972      0.4557       0.000    
  44    10.00       9.916       9.860       9.813       9.754       9.699       9.622       9.478       9.293       9.086    
        8.902       8.669       8.359       8.089       7.875       7.619       7.356       7.106       6.900       6.760    
        6.662       6.580       6.506       6.425       6.320       6.187       6.014       5.842       5.719       5.591    
        5.446       5.264       5.048       4.844       4.627       4.299       3.873       3.513       3.282       3.100    
        2.921       2.677       2.382       2.118       1.854       1.614       1.369      0.9002      0.4140       0.000    
  45    10.00       9.926       9.873       9.812       9.755       9.706       9.578       9.405       9.217       9.040    
        8.888       8.574       8.252       8.057       7.825       7.539       7.253       7.023       6.857       6.747    
        6.673       6.596       6.515       6.420       6.304       6.173       6.028       5.896       5.788       5.654    
        5.488       5.299       5.077       4.818       4.559       4.206       3.807       3.523       3.348       3.160    
        2.922       2.643       2.390       2.149       1.915       1.676       1.278      0.8000      0.4026       0.000    
  46    10.00       9.940       9.883       9.812       9.746       9.649       9.509       9.378       9.220       9.030    
        8.777       8.478       8.220       7.972       7.725       7.447       7.182       7.012       6.877       6.772    
        6.697       6.622       6.519       6.401       6.289       6.179       6.065       5.944       5.836       5.718    
        5.567       5.368       5.116       4.809       4.440       4.073       3.779       3.578       3.395       3.199    
        2.917       2.620       2.368       2.177       1.954       1.643       1.190      0.7641      0.3767       0.000    
  47    10.00       9.951       9.897       9.826       9.712       9.585       9.465       9.362       9.217       8.966    
        8.662       8.388       8.164       7.956       7.694       7.393       7.159       6.998       6.889       6.801    
        6.720       6.632       6.523       6.400       6.291       6.205       6.111       5.992       5.867       5.751    
        5.620       5.453       5.118       4.689       4.329       4.065       3.818       3.646       3.484       3.213    
        2.869       2.555       2.327       2.195       1.948       1.567       1.125      0.7370      0.3724       0.000    
  48    10.00       9.956       9.900       9.795       9.677       9.568       9.447       9.343       9.195       8.912    
        8.580       8.351       8.167       7.913       7.607       7.336       7.160       6.998       6.889       6.821    
        6.738       6.633       6.515       6.403       6.313       6.245       6.161       6.029       5.885       5.760    
        5.623       5.421       5.073       4.716       4.395       4.105       3.885       3.708       3.500       3.156    
        2.787       2.545       2.363       2.130       1.806       1.468       1.089      0.7423      0.3930       0.000    
  49    10.00       9.953       9.869       9.767       9.678       9.561       9.443       9.333       9.147       8.846    
        8.551       8.331       8.101       7.844       7.613       7.361       7.116       6.965       6.899       6.835    
        6.757       6.635       6.499       6.402       6.333       6.283       6.186       6.034       5.882       5.769    
        5.620       5.355       5.049       4.796       4.527       4.206       3.922       3.703       3.459       3.091    
        2.793       2.581       2.330       1.994       1.707       1.402       1.071      0.7545      0.3842       0.000    
  50    10.00       9.941       9.848       9.755       9.684       9.574       9.444       9.303       9.102       8.865    
        8.565       8.271       8.032       7.827       7.641       7.358       7.079       6.965       6.907       6.845    
        6.770       6.633       6.488       6.399       6.345       6.298       6.190       6.027       5.882       5.767    
        5.604       5.326       5.090       4.873       4.582       4.263       3.974       3.684       3.333       3.007    
        2.849       2.626       2.260       1.923       1.682       1.392       1.104      0.7369      0.3027       0.000    

 HEAD WILL BE SAVED ON UNIT   51 AT END OF TIME STEP  27, STRESS PERIOD    2

 DRAWDOWN WILL BE SAVED ON UNIT   52 AT END OF TIME STEP  27, STRESS PERIOD    2
1
  VOLUMETRIC BUDGET FOR ENTIRE MODEL AT END OF TIME STEP 27 IN STRESS PERIOD   2
  ------------------------------------------------------------------------------

     CUMULATIVE VOLUMES      L**3       RATES FOR THIS TIME STEP      L**3/T
     ------------------                 ------------------------

           IN:                                      IN:
           ---                                      ---
             STORAGE =       13457.8799               STORAGE =         493.0612
       CONSTANT HEAD =       15158.8105         CONSTANT HEAD =         546.7623
               WELLS =           0.0000                 WELLS =           0.0000

            TOTAL IN =       28616.6914              TOTAL IN =        1039.8235

          OUT:                                     OUT:
          ----                                     ----
             STORAGE =       9.3745E-03               STORAGE =           0.0000
       CONSTANT HEAD =       15116.6777         CONSTANT HEAD =         539.8240
               WELLS =       13500.0000                 WELLS =         500.0000

           TOTAL OUT =       28616.6875             TOTAL OUT =        1039.8240

            IN - OUT =       3.9063E-03              IN - OUT =      -4.8828E-04

 PERCENT DISCREPANCY =           0.00     PERCENT DISCREPANCY =           0.00






          TIME SUMMARY AT END OF TIME STEP  27 IN STRESS PERIOD    2
                    SECONDS     MINUTES      HOURS       DAYS        YEARS
                    -----------------------------------------------------------
   TIME STEP LENGTH  86400.      1440.0      24.000      1.0000     2.73785E-03
 STRESS PERIOD TIME 2.33280E+06  38880.      648.00      27.000     7.39220E-02
         TOTAL TIME 2.41920E+06  40320.      672.00      28.000     7.66598E-02
1
 
 SOLVING FOR HEAD 

 OUTPUT CONTROL FOR STRESS PERIOD    2   TIME STEP  28
    SAVE HEAD FOR ALL LAYERS
    SAVE DRAWDOWN FOR ALL LAYERS
    SAVE BUDGET
    PRINT HEAD FOR ALL LAYERS
    PRINT BUDGET
 UBDSV1 SAVING "         STORAGE" ON UNIT  53 AT TIME STEP 28, STRESS PERIOD   2
 UBDSV2 SAVING "   CONSTANT HEAD" ON UNIT  53 AT TIME STEP 28, STRESS PERIOD   2
 UBDSV1 SAVING "FLOW RIGHT FACE " ON UNIT  53 AT TIME STEP 28, STRESS PERIOD   2
 UBDSV1 SAVING "FLOW FRONT FACE " ON UNIT  53 AT TIME STEP 28, STRESS PERIOD   2
1
              HEAD IN LAYER   1 AT END OF TIME STEP  28 IN STRESS PERIOD    2
  ---------------------------------------------------------------------------

            1           2           3           4           5           6           7           8           9          10
           11          12          13          14          15          16          17          18          19          20
           21          22          23          24          25          26          27          28          29          30
           31          32          33          34          35          36          37          38          39          40
           41          42          43          44          45          46          47          48          49          50
 ........................................................................................................................
   1    10.00       9.959       9.903       9.848       9.802       9.745       9.690       9.631       9.554       9.490    
        9.452       9.414       9.372       9.330       9.263       9.188       9.108       9.044       9.016       8.984    
        8.944       8.910       8.874       8.829       8.765       8.655       8.521       8.390       8.240       8.091    
        7.878       7.541       7.144       6.726       6.259       5.827       5.461       5.121       4.656       4.152    
        3.722       3.297       2.711       2.156       1.766       1.377       1.049      0.8384      0.5560       0.000    
   2    10.00       9.959       9.909       9.853       9.804       9.752       9.690       9.614       9.539       9.490    
        9.456       9.422       9.390       9.337       9.260       9.183       9.109       9.047       9.017       8.980    
        8.940       8.914       8.885       8.837       8.765       8.659       8.525       8.389       8.248       8.098    
        7.868       7.521       7.104       6.632       6.160       5.744       5.417       5.083       4.612       4.140    
        3.706       3.195       2.665       2.225       1.838       1.474       1.101      0.7963      0.4251       0.000    
   3    10.00       9.955       9.907       9.856       9.806       9.746       9.670       9.597       9.550       9.505    
        9.466       9.436       9.404       9.355       9.277       9.182       9.104       9.053       9.014       8.978    
        8.944       8.916       8.888       8.828       8.751       8.644       8.517       8.415       8.266       8.088    
        7.793       7.390       6.948       6.492       6.056       5.667       5.375       5.032       4.524       4.064    
        3.702       3.235       2.746       2.323       1.920       1.553       1.111      0.6833      0.3005       0.000    
   4    10.00       9.959       9.910       9.854       9.793       9.724       9.650       9.597       9.556       9.514    
        9.480       9.455       9.419       9.366       9.295       9.192       9.105       9.057       9.016       8.981    
        8.944       8.910       8.874       8.811       8.733       8.630       8.507       8.393       8.278       8.056    
        7.676       7.187       6.717       6.368       6.040       5.662       5.285       4.851       4.422       4.085    
        3.762       3.347       2.856       2.438       2.015       1.569       1.060      0.6068      0.2826       0.000    
   5    10.00       9.955       9.904       9.841       9.777       9.713       9.649       9.604       9.561       9.525    
        9.495       9.469       9.427       9.366       9.283       9.189       9.115       9.063       9.020       8.973    
        8.930       8.896       8.851       8.786       8.712       8.596       8.474       8.375       8.260       7.980    
        7.487       6.954       6.566       6.300       6.002       5.617       5.188       4.760       4.453       4.166    
        3.873       3.443       2.930       2.563       2.133       1.550      0.9647      0.5601      0.2817       0.000    
   6    10.00       9.945       9.884       9.834       9.774       9.708       9.654       9.613       9.569       9.536    
        9.509       9.476       9.423       9.351       9.281       9.203       9.123       9.059       9.005       8.952    
        8.913       8.877       8.836       8.767       8.660       8.549       8.457       8.351       8.159       7.762    
        7.217       6.739       6.442       6.240       5.998       5.577       5.110       4.765       4.539       4.286    
        3.999       3.608       3.098       2.640       2.107       1.482      0.8650      0.4925      0.2752       0.000    
   7    10.00       9.929       9.872       9.824       9.766       9.718       9.667       9.624       9.587       9.552    
        9.516       9.470       9.406       9.337       9.273       9.209       9.121       9.036       8.978       8.934    
        8.896       8.857       8.814       8.725       8.615       8.525       8.425       8.259       7.942       7.442    
        6.926       6.552       6.367       6.207       5.902       5.489       5.178       4.874       4.625       4.447    
        4.154       3.749       3.201       2.608       1.951       1.235      0.7249      0.5001      0.2532       0.000    
   8    10.00       9.925       9.872       9.820       9.769       9.727       9.682       9.641       9.606       9.572    
        9.520       9.453       9.386       9.326       9.266       9.187       9.084       9.004       8.960       8.918    
        8.873       8.840       8.772       8.678       8.580       8.475       8.291       8.029       7.603       7.172    
        6.785       6.484       6.340       6.146       5.805       5.485       5.225       5.001       4.797       4.585    
        4.280       3.779       3.145       2.470       1.722       1.115      0.7671      0.4905      0.2259       0.000    
   9    10.00       9.928       9.869       9.818       9.781       9.746       9.703       9.663       9.622       9.583    
        9.519       9.437       9.368       9.307       9.236       9.148       9.056       8.984       8.938       8.894    
        8.854       8.801       8.708       8.622       8.523       8.380       8.117       7.727       7.308       6.997    
        6.690       6.464       6.302       6.045       5.730       5.479       5.293       5.117       4.942       4.710    
        4.331       3.807       3.132       2.377       1.689       1.154      0.7824      0.4864      0.2411       0.000    
  10    10.00       9.927       9.867       9.825       9.793       9.758       9.721       9.686       9.639       9.578    
        9.500       9.418       9.352       9.285       9.211       9.110       9.017       8.959       8.918       8.873    
        8.832       8.747       8.647       8.554       8.421       8.212       7.828       7.405       7.068       6.833    
        6.645       6.456       6.244       5.981       5.707       5.512       5.368       5.221       5.024       4.754    
        4.346       3.772       3.049       2.374       1.829       1.321      0.8376      0.5164      0.2721       0.000    
  11    10.00       9.918       9.871       9.836       9.804       9.773       9.741       9.694       9.629       9.561    
        9.483       9.403       9.339       9.252       9.152       9.064       8.996       8.942       8.901       8.852    
        8.779       8.672       8.532       8.395       8.170       7.862       7.521       7.232       6.955       6.779    
        6.620       6.379       6.137       5.940       5.754       5.604       5.457       5.268       5.034       4.718    
        4.335       3.825       3.092       2.474       1.990       1.502      0.9644      0.5111      0.2052       0.000    
  12    10.00       9.925       9.879       9.843       9.815       9.784       9.747       9.685       9.609       9.540    
        9.467       9.388       9.303       9.198       9.115       9.040       8.970       8.924       8.872       8.799    
        8.664       8.483       8.290       8.088       7.810       7.572       7.383       7.091       6.857       6.711    
        6.540       6.319       6.119       5.950       5.822       5.686       5.510       5.296       5.015       4.682    
        4.303       3.803       3.130       2.577       2.136       1.608       1.014      0.4831      0.1606       0.000    
  13    10.00       9.942       9.899       9.860       9.825       9.789       9.736       9.661       9.582       9.514    
        9.438       9.359       9.271       9.164       9.070       8.995       8.945       8.887       8.816       8.654    
        8.410       8.191       7.980       7.727       7.508       7.395       7.167       6.901       6.773       6.647    
        6.461       6.265       6.116       5.991       5.883       5.758       5.554       5.285       5.007       4.661    
        4.282       3.773       3.077       2.559       2.151       1.573      0.9439      0.4368      0.1262       0.000    
  14    10.00       9.957       9.919       9.878       9.836       9.782       9.706       9.627       9.557       9.481    
        9.405       9.333       9.229       9.112       9.027       8.966       8.888       8.804       8.643       8.361    
        8.099       7.900       7.622       7.411       7.307       7.180       6.946       6.787       6.665       6.543    
        6.381       6.249       6.153       6.044       5.929       5.796       5.568       5.270       4.972       4.619    
        4.211       3.595       2.940       2.522       2.022       1.468      0.9313      0.3991      0.1027       0.000    
  15    10.00       9.966       9.928       9.887       9.839       9.758       9.666       9.597       9.527       9.454    
        9.397       9.315       9.180       9.052       8.975       8.874       8.772       8.665       8.397       8.064    
        7.844       7.561       7.302       7.218       7.149       6.988       6.797       6.641       6.550       6.457    
        6.349       6.266       6.186       6.092       5.968       5.804       5.540       5.202       4.888       4.561    
        4.119       3.519       2.950       2.387       1.783       1.288      0.8011      0.3519      0.1056       0.000    
  16    10.00       9.975       9.938       9.889       9.816       9.717       9.639       9.582       9.520       9.445    
        9.369       9.254       9.101       8.979       8.869       8.751       8.679       8.471       8.080       7.768    
        7.540       7.257       7.154       7.099       6.979       6.776       6.621       6.542       6.502       6.433    
        6.349       6.279       6.215       6.115       5.965       5.763       5.446       5.137       4.887       4.533    
        4.030       3.383       2.731       2.107       1.594       1.105      0.6828      0.3341      0.1127       0.000    
  17    10.00       9.975       9.936       9.873       9.783       9.684       9.618       9.567       9.499       9.416    
        9.293       9.148       9.011       8.878       8.743       8.629       8.459       8.109       7.737       7.514    
        7.287       7.106       7.024       6.907       6.719       6.565       6.519       6.501       6.471       6.406    
        6.337       6.280       6.221       6.131       5.923       5.644       5.369       5.147       4.907       4.461    
        3.789       3.132       2.511       1.900       1.363      0.8938      0.5724      0.2989      0.1228       0.000    
  18    10.00       9.970       9.925       9.849       9.737       9.659       9.607       9.538       9.461       9.348    
        9.201       9.072       8.934       8.758       8.582       8.393       8.142       7.781       7.495       7.296    
        7.107       6.952       6.828       6.662       6.530       6.485       6.470       6.460       6.425       6.374    
        6.326       6.277       6.207       6.059       5.842       5.601       5.365       5.164       4.829       4.235    
        3.550       2.852       2.192       1.692       1.265      0.8380      0.4916      0.2472      0.1185       0.000    
  19    10.00       9.963       9.913       9.805       9.693       9.647       9.590       9.506       9.412       9.292    
        9.158       9.037       8.839       8.574       8.363       8.166       7.858       7.521       7.323       7.168    
        6.971       6.783       6.647       6.516       6.449       6.430       6.420       6.398       6.362       6.336    
        6.305       6.258       6.159       6.010       5.821       5.585       5.366       5.079       4.510       3.898    
        3.348       2.629       2.002       1.606       1.182      0.7560      0.4439      0.2517      0.1289       0.000    
  20    10.00       9.955       9.872       9.761       9.680       9.631       9.570       9.481       9.376       9.267    
        9.130       8.947       8.653       8.387       8.197       7.951       7.639       7.451       7.270       7.052    
        6.834       6.665       6.522       6.428       6.379       6.353       6.323       6.312       6.293       6.285    
        6.268       6.224       6.118       5.971       5.775       5.565       5.292       4.773       4.162       3.675    
        3.081       2.421       1.953       1.571       1.143      0.6705      0.3875      0.2619      0.1349       0.000    
  21    10.00       9.926       9.837       9.744       9.665       9.614       9.549       9.445       9.342       9.239    
        9.058       8.779       8.477       8.274       8.059       7.797       7.562       7.382       7.162       6.930    
        6.719       6.553       6.428       6.329       6.262       6.213       6.196       6.202       6.202       6.210    
        6.212       6.161       6.050       5.903       5.701       5.468       5.045       4.501       4.016       3.426    
        2.865       2.345       1.951       1.563      0.9618      0.5424      0.3920      0.2958      0.1418       0.000    
  22    10.00       9.907       9.801       9.718       9.656       9.594       9.503       9.408       9.316       9.176    
        8.943       8.627       8.384       8.199       7.956       7.685       7.457       7.264       7.061       6.840    
        6.630       6.454       6.288       6.137       6.052       6.032       6.049       6.065       6.099       6.118    
        6.125       6.067       5.969       5.814       5.604       5.370       4.934       4.402       3.770       3.201    
        2.795       2.381       1.906       1.258      0.7491      0.5404      0.4107      0.2734      0.1011       0.000    
  23    10.00       9.880       9.777       9.712       9.647       9.556       9.456       9.385       9.270       9.094    
        8.820       8.548       8.373       8.142       7.825       7.552       7.370       7.212       7.021       6.783    
        6.561       6.356       6.118       5.838       5.633       5.677       5.811       5.900       5.977       6.025    
        6.032       5.983       5.885       5.741       5.539       5.272       4.828       4.173       3.542       3.141    
        2.767       2.244       1.566       1.013      0.7367      0.5508      0.3939      0.2323      9.2439E-02   0.000    
  24    10.00       9.862       9.788       9.711       9.618       9.523       9.447       9.367       9.257       9.022    
        8.764       8.562       8.364       8.055       7.704       7.507       7.353       7.198       6.980       6.756    
        6.559       6.299       5.918       5.387       4.737       5.009       5.412       5.690       5.851       5.928    
        5.950       5.906       5.820       5.661       5.442       5.112       4.556       3.940       3.465       3.047    
        2.589       2.009       1.404      0.9815      0.7377      0.5363      0.3592      0.2516      0.1235       0.000    
  25    10.00       9.878       9.802       9.705       9.609       9.521       9.445       9.372       9.206       8.977    
        8.778       8.573       8.313       7.971       7.710       7.535       7.362       7.175       6.976       6.783    
        6.557       6.309       5.765       4.752       2.939       4.301       5.042       5.480       5.744       5.869    
        5.894       5.856       5.759       5.547       5.256       4.820       4.305       3.822       3.413       2.923    
        2.371       1.818       1.308      0.9724      0.7645      0.5572      0.3784      0.2635      0.1640       0.000    
  26    10.00       9.895       9.821       9.719       9.615       9.536       9.454       9.346       9.181       9.021    
        8.834       8.553       8.233       7.955       7.759       7.589       7.390       7.160       6.967       6.805    
        6.619       6.375       5.909       5.169       4.346       4.708       5.162       5.490       5.733       5.857    
        5.862       5.812       5.671       5.424       5.108       4.695       4.130       3.674       3.295       2.705    
        2.083       1.599       1.296       1.062      0.8244      0.6015      0.4124      0.2862      0.1672       0.000    
  27    10.00       9.916       9.826       9.734       9.644       9.550       9.458       9.349       9.212       9.065    
        8.827       8.508       8.227       7.998       7.834       7.639       7.379       7.140       6.991       6.859    
        6.714       6.492       6.142       5.711       5.278       5.263       5.441       5.652       5.821       5.873    
        5.846       5.780       5.619       5.353       4.986       4.435       3.911       3.541       2.973       2.359    
        1.879       1.569       1.341       1.136      0.9012      0.6564      0.4479      0.3149      0.1987       0.000    
  28    10.00       9.922       9.848       9.764       9.676       9.576       9.474       9.368       9.248       9.075    
        8.794       8.515       8.271       8.047       7.874       7.681       7.470       7.244       7.037       6.903    
        6.788       6.631       6.409       6.103       5.846       5.700       5.742       5.867       5.913       5.902    
        5.843       5.747       5.550       5.220       4.746       4.185       3.743       3.232       2.647       2.215    
        1.875       1.613       1.389       1.175      0.9469      0.7163      0.5082      0.3586      0.2049       0.000    
  29    10.00       9.927       9.855       9.789       9.702       9.612       9.512       9.402       9.270       9.037    
        8.774       8.536       8.303       8.115       7.918       7.714       7.524       7.344       7.149       6.976    
        6.854       6.734       6.590       6.412       6.171       6.055       6.040       6.038       6.021       5.940    
        5.830       5.657       5.429       5.008       4.448       3.970       3.535       3.010       2.546       2.231    
        1.956       1.668       1.415       1.210       1.004      0.7574      0.5369      0.3746      0.2077       0.000    
  30    10.00       9.937       9.876       9.819       9.741       9.651       9.561       9.436       9.257       9.044    
        8.777       8.518       8.326       8.137       7.949       7.767       7.614       7.451       7.263       7.080    
        6.933       6.833       6.712       6.594       6.463       6.348       6.297       6.202       6.112       5.971    
        5.770       5.489       5.188       4.760       4.335       3.896       3.435       2.948       2.600       2.316    
        1.989       1.701       1.480       1.247       1.002      0.7836      0.5722      0.3978      0.2235       0.000    
  31    10.00       9.950       9.900       9.844       9.786       9.713       9.611       9.453       9.248       9.022    
        8.764       8.532       8.358       8.172       7.998       7.830       7.680       7.552       7.364       7.182    
        7.049       6.943       6.848       6.749       6.664       6.555       6.441       6.329       6.170       5.952    
        5.637       5.301       5.006       4.673       4.274       3.815       3.353       2.957       2.714       2.443    
        2.080       1.764       1.513       1.276       1.049      0.8242      0.6062      0.4186      0.2167       0.000    
  32    10.00       9.956       9.920       9.872       9.816       9.747       9.636       9.453       9.265       9.052    
        8.785       8.571       8.406       8.214       8.027       7.889       7.761       7.611       7.459       7.283    
        7.144       7.032       6.937       6.838       6.746       6.663       6.532       6.376       6.157       5.861    
        5.517       5.201       4.911       4.601       4.213       3.802       3.442       3.107       2.827       2.516    
        2.181       1.869       1.605       1.334       1.086      0.8959      0.6682      0.4105      0.1833       0.000    
  33    10.00       9.963       9.934       9.893       9.836       9.761       9.616       9.435       9.283       9.090    
        8.846       8.643       8.446       8.228       8.062       7.949       7.838       7.684       7.519       7.362    
        7.210       7.091       6.970       6.867       6.792       6.709       6.542       6.315       6.081       5.807    
        5.471       5.198       4.901       4.530       4.172       3.812       3.521       3.256       2.938       2.595    
        2.307       2.012       1.722       1.442       1.182      0.9697      0.7146      0.4124      0.1792       0.000    
  34    10.00       9.969       9.947       9.912       9.837       9.725       9.590       9.464       9.307       9.116    
        8.906       8.682       8.458       8.244       8.111       8.020       7.900       7.750       7.562       7.407    
        7.264       7.113       6.984       6.888       6.810       6.688       6.487       6.274       6.035       5.716    
        5.422       5.209       4.914       4.558       4.211       3.883       3.609       3.346       3.019       2.711    
        2.454       2.171       1.854       1.575       1.311       1.068      0.7640      0.4638      0.2432       0.000    
  35    10.00       9.974       9.947       9.896       9.802       9.692       9.595       9.486       9.358       9.149    
        8.917       8.689       8.461       8.288       8.173       8.076       7.945       7.784       7.597       7.413    
        7.247       7.102       6.972       6.881       6.795       6.671       6.459       6.210       5.930       5.601    
        5.385       5.158       4.866       4.608       4.320       3.979       3.680       3.461       3.155       2.828    
        2.580       2.290       1.973       1.698       1.424       1.158      0.8756      0.5803      0.2870       0.000    
  36    10.00       9.968       9.924       9.868       9.780       9.678       9.596       9.501       9.361       9.156    
        8.900       8.655       8.495       8.367       8.253       8.126       7.969       7.802       7.595       7.338    
        7.158       7.047       6.938       6.861       6.776       6.619       6.379       6.108       5.768       5.481    
        5.304       5.120       4.875       4.629       4.391       4.087       3.791       3.561       3.288       2.932    
        2.660       2.337       2.021       1.811       1.545       1.249      0.9658      0.6572      0.3215       0.000    
  37    10.00       9.950       9.903       9.847       9.761       9.671       9.577       9.485       9.355       9.114    
        8.845       8.660       8.567       8.443       8.298       8.168       7.967       7.755       7.480       7.213    
        7.105       7.011       6.906       6.820       6.717       6.522       6.280       5.922       5.617       5.438    
        5.289       5.098       4.859       4.667       4.426       4.140       3.909       3.688       3.382       2.991    
        2.635       2.332       2.112       1.895       1.628       1.347       1.064      0.7248      0.3980       0.000    
  38    10.00       9.943       9.882       9.822       9.746       9.660       9.560       9.460       9.308       9.080    
        8.879       8.735       8.616       8.500       8.339       8.118       7.885       7.631       7.321       7.152    
        7.066       6.939       6.824       6.754       6.632       6.419       6.064       5.734       5.581       5.448    
        5.294       5.093       4.879       4.691       4.455       4.197       4.008       3.783       3.393       2.962    
        2.654       2.401       2.183       1.959       1.723       1.437       1.155      0.8382      0.4142       0.000    
  39    10.00       9.926       9.866       9.812       9.738       9.639       9.532       9.428       9.284       9.098    
        8.940       8.829       8.694       8.529       8.282       7.998       7.735       7.434       7.219       7.115    
        6.976       6.827       6.741       6.672       6.551       6.265       5.918       5.729       5.592       5.456    
        5.281       5.094       4.889       4.701       4.523       4.312       4.064       3.792       3.408       3.007    
        2.681       2.420       2.249       2.061       1.795       1.513       1.226      0.8725      0.4088       0.000    
  40    10.00       9.917       9.859       9.804       9.727       9.624       9.520       9.416       9.288       9.132    
        9.002       8.902       8.727       8.459       8.144       7.859       7.580       7.325       7.173       7.035    
        6.873       6.746       6.676       6.586       6.424       6.168       5.942       5.757       5.606       5.464    
        5.294       5.094       4.902       4.746       4.591       4.378       4.092       3.808       3.417       2.988    
        2.683       2.476       2.287       2.127       1.847       1.538       1.276      0.8750      0.4073       0.000    
  41    10.00       9.924       9.857       9.789       9.706       9.625       9.537       9.440       9.313       9.171    
        9.045       8.919       8.684       8.360       8.036       7.771       7.498       7.258       7.107       6.955    
        6.791       6.682       6.602       6.495       6.330       6.143       5.992       5.815       5.627       5.462    
        5.299       5.120       4.937       4.802       4.637       4.425       4.139       3.746       3.299       2.968    
        2.747       2.547       2.352       2.128       1.837       1.541       1.317      0.9322      0.4227       0.000    
  42    10.00       9.924       9.847       9.787       9.726       9.651       9.557       9.446       9.337       9.226    
        9.060       8.837       8.563       8.253       7.952       7.711       7.444       7.213       7.048       6.876    
        6.724       6.627       6.537       6.441       6.295       6.167       6.041       5.840       5.630       5.481    
        5.350       5.155       4.959       4.829       4.676       4.450       4.099       3.636       3.226       2.980    
        2.813       2.635       2.386       2.088       1.809       1.577       1.345      0.9833      0.4851       0.000    
  43    10.00       9.917       9.852       9.800       9.752       9.679       9.585       9.480       9.356       9.180    
        8.961       8.730       8.473       8.151       7.882       7.659       7.419       7.185       6.977       6.816    
        6.681       6.583       6.509       6.430       6.308       6.178       6.049       5.841       5.658       5.550    
        5.390       5.180       4.992       4.857       4.680       4.386       3.981       3.542       3.244       3.055    
        2.878       2.673       2.367       2.062       1.815       1.592       1.391      0.9971      0.4557       0.000    
  44    10.00       9.916       9.860       9.813       9.754       9.699       9.621       9.478       9.292       9.086    
        8.902       8.668       8.358       8.089       7.875       7.618       7.355       7.105       6.899       6.759    
        6.661       6.579       6.505       6.424       6.319       6.186       6.014       5.841       5.719       5.590    
        5.446       5.263       5.048       4.843       4.627       4.298       3.873       3.513       3.282       3.100    
        2.921       2.677       2.382       2.118       1.854       1.614       1.368      0.9002      0.4140       0.000    
  45    10.00       9.926       9.872       9.812       9.754       9.706       9.577       9.405       9.217       9.039    
        8.887       8.574       8.252       8.056       7.824       7.538       7.253       7.022       6.856       6.746    
        6.672       6.595       6.514       6.420       6.303       6.172       6.027       5.895       5.788       5.654    
        5.487       5.298       5.077       4.818       4.559       4.206       3.807       3.523       3.348       3.160    
        2.922       2.643       2.390       2.149       1.915       1.676       1.278      0.8000      0.4026       0.000    
  46    10.00       9.940       9.883       9.812       9.746       9.649       9.509       9.378       9.220       9.030    
        8.777       8.478       8.220       7.972       7.724       7.447       7.182       7.012       6.876       6.771    
        6.696       6.622       6.518       6.401       6.288       6.178       6.064       5.944       5.835       5.717    
        5.567       5.368       5.116       4.809       4.440       4.073       3.779       3.578       3.395       3.199    
        2.917       2.620       2.368       2.177       1.954       1.643       1.190      0.7641      0.3767       0.000    
  47    10.00       9.951       9.897       9.826       9.712       9.585       9.465       9.362       9.216       8.965    
        8.662       8.388       8.163       7.956       7.693       7.392       7.158       6.997       6.888       6.800    
        6.720       6.631       6.523       6.399       6.290       6.204       6.110       5.991       5.867       5.751    
        5.620       5.453       5.118       4.689       4.329       4.065       3.818       3.646       3.484       3.213    
        2.869       2.555       2.327       2.195       1.948       1.567       1.125      0.7370      0.3724       0.000    
  48    10.00       9.956       9.900       9.795       9.677       9.568       9.447       9.343       9.195       8.911    
        8.580       8.351       8.167       7.913       7.606       7.335       7.159       6.997       6.889       6.820    
        6.738       6.632       6.515       6.402       6.313       6.244       6.160       6.029       5.885       5.760    
        5.622       5.421       5.073       4.716       4.395       4.105       3.885       3.708       3.500       3.156    
        2.787       2.545       2.363       2.130       1.806       1.468       1.089      0.7423      0.3930       0.000    
  49    10.00       9.953       9.869       9.767       9.678       9.561       9.443       9.333       9.147       8.846    
        8.550       8.331       8.101       7.844       7.613       7.360       7.116       6.965       6.899       6.834    
        6.756       6.634       6.499       6.401       6.333       6.282       6.186       6.034       5.882       5.769    
        5.620       5.355       5.048       4.796       4.527       4.206       3.922       3.703       3.459       3.091    
        2.793       2.581       2.330       1.994       1.707       1.402       1.071      0.7545      0.3842       0.000    
  50    10.00       9.941       9.848       9.755       9.684       9.574       9.443       9.303       9.102       8.864    
        8.564       8.271       8.031       7.826       7.641       7.358       7.079       6.965       6.907       6.844    
        6.769       6.632       6.487       6.399       6.345       6.298       6.190       6.027       5.882       5.766    
        5.604       5.326       5.089       4.873       4.582       4.263       3.974       3.684       3.333       3.007    
        2.849       2.626       2.260       1.923       1.682       1.392       1.104      0.7369      0.3027       0.000    

 HEAD WILL BE SAVED ON UNIT   51 AT END OF TIME STEP  28, STRESS PERIOD    2

 DRAWDOWN WILL BE SAVED ON UNIT   52 AT END OF TIME STEP  28, STRESS PERIOD    2
1
  VOLUMETRIC BUDGET FOR ENTIRE MODEL AT END OF TIME STEP 28 IN STRESS PERIOD   2
  ------------------------------------------------------------------------------

     CUMULATIVE VOLUMES      L**3       RATES FOR THIS TIME STEP      L**3/T
     ------------------                 ------------------------

           IN:                                      IN:
           ---                                      ---
             STORAGE =       13950.0215               STORAGE =         492.1415
       CONSTANT HEAD =       15706.4785         CONSTANT HEAD =         547.6678
               WELLS =           0.0000                 WELLS =           0.0000

            TOTAL IN =       29656.5000              TOTAL IN =        1039.8093

          OUT:                                     OUT:
          ----                                     ----
             STORAGE =       9.3745E-03               STORAGE =           0.0000
       CONSTANT HEAD =       15656.4863         CONSTANT HEAD =         539.8090
               WELLS =       14000.0000                 WELLS =         500.0000

           TOTAL OUT =       29656.4961             TOTAL OUT =        1039.8091

            IN - OUT =       3.9063E-03              IN - OUT =       2.4414E-04

 PERCENT DISCREPANCY =           0.00     PERCENT DISCREPANCY =           0.00






          TIME SUMMARY AT END OF TIME STEP  28 IN STRESS PERIOD    2
                    SECONDS     MINUTES      HOURS       DAYS        YEARS
                    -----------------------------------------------------------
   TIME STEP LENGTH  86400.      1440.0      24.000      1.0000     2.73785E-03
 STRESS PERIOD TIME 2.41920E+06  40320.      672.00      28.000     7.66598E-02
         TOTAL TIME 2.50560E+06  41760.      696.00      29.000     7.93977E-02
1
 
 SOLVING FOR HEAD 

 OUTPUT CONTROL FOR STRESS PERIOD    2   TIME STEP  29
    SAVE HEAD FOR ALL LAYERS
    SAVE DRAWDOWN FOR ALL LAYERS
    SAVE BUDGET
    PRINT HEAD FOR ALL LAYERS
    PRINT BUDGET
 UBDSV1 SAVING "         STORAGE" ON UNIT  53 AT TIME STEP 29, STRESS PERIOD   2
 UBDSV2 SAVING "   CONSTANT HEAD" ON UNIT  53 AT TIME STEP 29, STRESS PERIOD   2
 UBDSV1 SAVING "FLOW RIGHT FACE " ON UNIT  53 AT TIME STEP 29, STRESS PERIOD   2
 UBDSV1 SAVING "FLOW FRONT FACE " ON UNIT  53 AT TIME STEP 29, STRESS PERIOD   2
1
              HEAD IN LAYER   1 AT END OF TIME STEP  29 IN STRESS PERIOD    2
  ---------------------------------------------------------------------------

            1           2           3           4           5           6           7           8           9          10
           11          12          13          14          15          16          17          18          19          20
           21          22          23          24          25          26          27          28          29          30
           31          32          33          34          35          36          37          38          39          40
           41          42          43          44          45          46          47          48          49          50
 ........................................................................................................................
   1    10.00       9.959       9.903       9.848       9.801       9.745       9.689       9.631       9.553       9.489    
        9.451       9.413       9.371       9.329       9.261       9.187       9.106       9.043       9.014       8.982    
        8.942       8.908       8.872       8.827       8.763       8.653       8.519       8.389       8.239       8.089    
        7.877       7.540       7.143       6.726       6.258       5.826       5.460       5.120       4.655       4.151    
        3.722       3.297       2.711       2.155       1.766       1.376       1.049      0.8384      0.5559       0.000    
   2    10.00       9.959       9.909       9.853       9.804       9.751       9.689       9.613       9.538       9.489    
        9.455       9.421       9.388       9.336       9.258       9.182       9.108       9.046       9.015       8.978    
        8.938       8.912       8.883       8.835       8.763       8.657       8.523       8.387       8.246       8.097    
        7.867       7.520       7.103       6.631       6.160       5.743       5.416       5.082       4.612       4.139    
        3.706       3.194       2.665       2.225       1.838       1.474       1.101      0.7962      0.4251       0.000    
   3    10.00       9.955       9.907       9.856       9.806       9.746       9.669       9.597       9.549       9.504    
        9.465       9.435       9.403       9.354       9.276       9.181       9.103       9.051       9.012       8.976    
        8.942       8.914       8.886       8.826       8.749       8.642       8.515       8.413       8.264       8.087    
        7.791       7.389       6.947       6.491       6.055       5.667       5.374       5.031       4.523       4.063    
        3.702       3.235       2.746       2.322       1.920       1.553       1.111      0.6832      0.3005       0.000    
   4    10.00       9.958       9.910       9.854       9.792       9.723       9.650       9.596       9.555       9.513    
        9.479       9.454       9.418       9.365       9.294       9.190       9.103       9.055       9.014       8.979    
        8.941       8.908       8.872       8.809       8.731       8.628       8.505       8.391       8.276       8.054    
        7.674       7.185       6.715       6.366       6.039       5.661       5.284       4.850       4.421       4.084    
        3.761       3.346       2.856       2.437       2.015       1.569       1.060      0.6068      0.2826       0.000    
   5    10.00       9.955       9.904       9.840       9.777       9.712       9.648       9.603       9.560       9.524    
        9.494       9.468       9.426       9.364       9.282       9.187       9.113       9.061       9.018       8.971    
        8.927       8.893       8.848       8.783       8.710       8.594       8.471       8.373       8.257       7.978    
        7.484       6.951       6.564       6.298       6.000       5.615       5.186       4.758       4.452       4.165    
        3.872       3.442       2.930       2.563       2.133       1.550      0.9646      0.5601      0.2817       0.000    
   6    10.00       9.945       9.884       9.834       9.774       9.707       9.653       9.612       9.568       9.535    
        9.507       9.475       9.422       9.350       9.280       9.201       9.121       9.057       9.003       8.950    
        8.911       8.875       8.833       8.765       8.657       8.546       8.454       8.348       8.157       7.759    
        7.214       6.735       6.439       6.237       5.995       5.574       5.108       4.763       4.537       4.284    
        3.997       3.607       3.097       2.640       2.107       1.482      0.8649      0.4925      0.2751       0.000    
   7    10.00       9.929       9.872       9.823       9.766       9.718       9.666       9.624       9.587       9.551    
        9.515       9.469       9.405       9.335       9.271       9.207       9.119       9.033       8.976       8.932    
        8.894       8.854       8.811       8.722       8.612       8.522       8.422       8.256       7.939       7.438    
        6.922       6.548       6.362       6.203       5.898       5.485       5.175       4.871       4.622       4.444    
        4.153       3.748       3.200       2.608       1.951       1.235      0.7248      0.5000      0.2532       0.000    
   8    10.00       9.925       9.872       9.820       9.768       9.726       9.682       9.641       9.605       9.571    
        9.519       9.452       9.385       9.324       9.264       9.185       9.082       9.001       8.957       8.915    
        8.870       8.837       8.769       8.674       8.577       8.471       8.287       8.025       7.598       7.167    
        6.779       6.479       6.335       6.142       5.801       5.481       5.222       4.997       4.794       4.582    
        4.278       3.778       3.145       2.470       1.722       1.114      0.7670      0.4904      0.2259       0.000    
   9    10.00       9.928       9.869       9.818       9.781       9.745       9.703       9.662       9.621       9.583    
        9.517       9.436       9.367       9.305       9.234       9.146       9.053       8.981       8.935       8.891    
        8.851       8.797       8.704       8.617       8.519       8.375       8.112       7.721       7.301       6.990    
        6.683       6.457       6.296       6.040       5.725       5.475       5.288       5.113       4.938       4.707    
        4.329       3.806       3.131       2.377       1.689       1.154      0.7823      0.4864      0.2411       0.000    
  10    10.00       9.927       9.867       9.825       9.792       9.758       9.720       9.685       9.638       9.577    
        9.499       9.417       9.350       9.282       9.208       9.107       9.014       8.956       8.914       8.870    
        8.828       8.743       8.643       8.549       8.416       8.206       7.821       7.397       7.060       6.824    
        6.637       6.448       6.237       5.974       5.701       5.507       5.363       5.217       5.020       4.751    
        4.344       3.770       3.049       2.374       1.829       1.321      0.8375      0.5163      0.2720       0.000    
  11    10.00       9.918       9.871       9.836       9.803       9.773       9.740       9.693       9.628       9.560    
        9.482       9.402       9.337       9.250       9.149       9.061       8.993       8.938       8.897       8.848    
        8.775       8.667       8.527       8.389       8.162       7.853       7.511       7.222       6.945       6.769    
        6.611       6.371       6.128       5.932       5.746       5.597       5.452       5.263       5.030       4.715    
        4.333       3.824       3.091       2.474       1.989       1.502      0.9644      0.5111      0.2052       0.000    
  12    10.00       9.925       9.879       9.842       9.815       9.783       9.747       9.684       9.608       9.538    
        9.465       9.386       9.300       9.195       9.112       9.037       8.966       8.920       8.868       8.795    
        8.658       8.476       8.282       8.078       7.799       7.560       7.371       7.079       6.845       6.700    
        6.529       6.309       6.110       5.941       5.814       5.679       5.504       5.290       5.011       4.679    
        4.300       3.802       3.129       2.576       2.136       1.608       1.014      0.4830      0.1606       0.000    
  13    10.00       9.941       9.899       9.859       9.824       9.788       9.736       9.660       9.580       9.512    
        9.436       9.357       9.268       9.161       9.066       8.990       8.940       8.882       8.811       8.647    
        8.402       8.181       7.968       7.714       7.494       7.381       7.152       6.886       6.759       6.634    
        6.448       6.253       6.106       5.982       5.874       5.750       5.547       5.279       5.003       4.658    
        4.280       3.771       3.076       2.559       2.150       1.573      0.9438      0.4368      0.1262       0.000    
  14    10.00       9.957       9.919       9.877       9.836       9.781       9.706       9.626       9.556       9.479    
        9.403       9.330       9.226       9.108       9.022       8.961       8.882       8.798       8.636       8.351    
        8.087       7.886       7.607       7.395       7.290       7.163       6.929       6.770       6.649       6.528    
        6.366       6.235       6.141       6.033       5.919       5.787       5.560       5.264       4.967       4.615    
        4.209       3.594       2.939       2.522       2.021       1.468      0.9313      0.3991      0.1027       0.000    
  15    10.00       9.966       9.928       9.886       9.839       9.758       9.665       9.596       9.526       9.452    
        9.395       9.312       9.176       9.048       8.970       8.868       8.765       8.657       8.387       8.050    
        7.829       7.544       7.284       7.199       7.131       6.969       6.778       6.623       6.532       6.440    
        6.333       6.251       6.173       6.080       5.957       5.795       5.532       5.196       4.883       4.557    
        4.117       3.517       2.949       2.387       1.783       1.288      0.8011      0.3518      0.1056       0.000    
  16    10.00       9.975       9.938       9.889       9.815       9.717       9.637       9.581       9.518       9.443    
        9.366       9.250       9.096       8.973       8.862       8.743       8.671       8.461       8.066       7.751    
        7.522       7.237       7.134       7.079       6.959       6.756       6.600       6.522       6.483       6.415    
        6.332       6.263       6.200       6.102       5.954       5.753       5.439       5.131       4.882       4.530    
        4.028       3.382       2.730       2.107       1.594       1.105      0.6828      0.3341      0.1127       0.000    
  17    10.00       9.975       9.936       9.873       9.782       9.683       9.617       9.566       9.497       9.414    
        9.290       9.143       9.005       8.871       8.735       8.620       8.447       8.095       7.719       7.495    
        7.267       7.085       7.003       6.885       6.697       6.543       6.498       6.480       6.451       6.387    
        6.320       6.264       6.206       6.117       5.911       5.634       5.362       5.141       4.902       4.458    
        3.787       3.131       2.511       1.900       1.363      0.8938      0.5724      0.2989      0.1228       0.000    
  18    10.00       9.970       9.925       9.849       9.736       9.658       9.605       9.536       9.459       9.345    
        9.196       9.066       8.927       8.749       8.571       8.381       8.127       7.762       7.475       7.275    
        7.085       6.930       6.806       6.639       6.507       6.462       6.448       6.438       6.404       6.354    
        6.307       6.259       6.191       6.045       5.830       5.592       5.357       5.158       4.824       4.232    
        3.548       2.852       2.192       1.692       1.265      0.8380      0.4916      0.2472      0.1184       0.000    
  19    10.00       9.963       9.913       9.804       9.692       9.646       9.589       9.504       9.409       9.288    
        9.153       9.031       8.831       8.563       8.350       8.151       7.840       7.500       7.302       7.145    
        6.948       6.760       6.623       6.492       6.425       6.406       6.397       6.375       6.340       6.315    
        6.285       6.240       6.142       5.995       5.809       5.575       5.358       5.072       4.506       3.896    
        3.346       2.628       2.002       1.606       1.182      0.7559      0.4438      0.2517      0.1289       0.000    
  20    10.00       9.955       9.872       9.760       9.679       9.629       9.568       9.478       9.373       9.263    
        9.125       8.940       8.643       8.374       8.182       7.934       7.619       7.430       7.247       7.029    
        6.810       6.641       6.498       6.404       6.355       6.329       6.299       6.288       6.270       6.263    
        6.247       6.205       6.101       5.956       5.762       5.554       5.284       4.768       4.159       3.674    
        3.080       2.421       1.953       1.570       1.143      0.6705      0.3874      0.2619      0.1349       0.000    
  21    10.00       9.926       9.837       9.744       9.664       9.613       9.547       9.443       9.339       9.235    
        9.052       8.770       8.465       8.259       8.042       7.778       7.541       7.360       7.139       6.906    
        6.695       6.529       6.403       6.304       6.238       6.188       6.172       6.178       6.178       6.187    
        6.190       6.141       6.032       5.888       5.689       5.458       5.038       4.497       4.013       3.425    
        2.864       2.345       1.951       1.563      0.9618      0.5424      0.3920      0.2957      0.1418       0.000    
  22    10.00       9.906       9.800       9.717       9.655       9.593       9.501       9.405       9.313       9.171    
        8.936       8.616       8.371       8.184       7.939       7.666       7.436       7.242       7.038       6.816    
        6.606       6.429       6.263       6.112       6.026       6.007       6.024       6.040       6.074       6.094    
        6.102       6.046       5.950       5.798       5.591       5.360       4.927       4.399       3.768       3.200    
        2.795       2.380       1.906       1.258      0.7491      0.5404      0.4107      0.2734      0.1011       0.000    
  23    10.00       9.880       9.776       9.712       9.646       9.554       9.454       9.382       9.267       9.088    
        8.812       8.536       8.359       8.126       7.806       7.531       7.348       7.189       6.998       6.758    
        6.537       6.331       6.092       5.812       5.607       5.651       5.785       5.874       5.951       6.000    
        6.008       5.961       5.866       5.725       5.527       5.262       4.822       4.170       3.540       3.140    
        2.766       2.244       1.566       1.013      0.7367      0.5508      0.3939      0.2323      9.2437E-02   0.000    
  24    10.00       9.862       9.787       9.710       9.617       9.521       9.444       9.364       9.253       9.016    
        8.755       8.551       8.351       8.039       7.685       7.486       7.332       7.175       6.957       6.731    
        6.534       6.274       5.892       5.360       4.710       4.982       5.385       5.664       5.825       5.903    
        5.926       5.884       5.801       5.645       5.429       5.103       4.551       3.937       3.463       3.046    
        2.589       2.009       1.404      0.9815      0.7377      0.5363      0.3592      0.2516      0.1235       0.000    
  25    10.00       9.878       9.802       9.704       9.607       9.519       9.442       9.369       9.201       8.970    
        8.769       8.562       8.299       7.954       7.691       7.514       7.340       7.152       6.952       6.759    
        6.532       6.283       5.739       4.725       2.910       4.273       5.014       5.452       5.717       5.843    
        5.870       5.834       5.740       5.531       5.244       4.813       4.301       3.819       3.412       2.922    
        2.371       1.818       1.308      0.9724      0.7645      0.5572      0.3784      0.2635      0.1640       0.000    
  26    10.00       9.894       9.821       9.718       9.614       9.534       9.451       9.343       9.176       9.015    
        8.826       8.541       8.218       7.938       7.741       7.569       7.368       7.137       6.943       6.782    
        6.594       6.350       5.883       5.142       4.318       4.679       5.133       5.461       5.705       5.831    
        5.839       5.791       5.653       5.410       5.097       4.688       4.125       3.672       3.293       2.704    
        2.083       1.599       1.295       1.062      0.8243      0.6015      0.4124      0.2862      0.1672       0.000    
  27    10.00       9.916       9.825       9.733       9.643       9.547       9.455       9.345       9.207       9.059    
        8.818       8.496       8.213       7.981       7.817       7.620       7.358       7.118       6.968       6.836    
        6.690       6.467       6.117       5.685       5.251       5.234       5.413       5.624       5.794       5.848    
        5.824       5.760       5.602       5.339       4.977       4.429       3.908       3.539       2.972       2.358    
        1.879       1.569       1.341       1.136      0.9012      0.6564      0.4479      0.3149      0.1987       0.000    
  28    10.00       9.922       9.847       9.763       9.674       9.574       9.471       9.364       9.244       9.069    
        8.785       8.504       8.257       8.031       7.857       7.663       7.450       7.223       7.014       6.879    
        6.765       6.607       6.384       6.077       5.819       5.672       5.714       5.840       5.887       5.878    
        5.822       5.727       5.534       5.209       4.738       4.181       3.741       3.231       2.647       2.215    
        1.875       1.612       1.389       1.175      0.9468      0.7163      0.5081      0.3585      0.2049       0.000    
  29    10.00       9.927       9.854       9.788       9.701       9.610       9.510       9.399       9.266       9.031    
        8.765       8.526       8.290       8.100       7.902       7.696       7.505       7.324       7.128       6.953    
        6.831       6.711       6.566       6.387       6.145       6.028       6.014       6.013       5.996       5.918    
        5.811       5.640       5.416       5.000       4.443       3.967       3.533       3.009       2.545       2.231    
        1.956       1.668       1.415       1.210       1.004      0.7574      0.5369      0.3746      0.2077       0.000    
  30    10.00       9.937       9.876       9.818       9.740       9.649       9.559       9.433       9.253       9.038    
        8.769       8.507       8.314       8.123       7.934       7.750       7.596       7.432       7.243       7.059    
        6.911       6.810       6.689       6.570       6.439       6.323       6.273       6.179       6.091       5.952    
        5.753       5.477       5.179       4.755       4.332       3.894       3.434       2.947       2.599       2.315    
        1.989       1.701       1.480       1.247       1.002      0.7836      0.5721      0.3978      0.2235       0.000    
  31    10.00       9.950       9.899       9.844       9.785       9.712       9.609       9.451       9.244       9.017    
        8.757       8.522       8.346       8.159       7.984       7.814       7.663       7.535       7.345       7.162    
        7.028       6.922       6.826       6.727       6.643       6.534       6.420       6.309       6.152       5.937    
        5.625       5.292       4.999       4.669       4.272       3.813       3.352       2.957       2.713       2.442    
        2.080       1.764       1.512       1.276       1.049      0.8241      0.6062      0.4186      0.2167       0.000    
  32    10.00       9.956       9.920       9.872       9.816       9.746       9.635       9.451       9.262       9.046    
        8.778       8.562       8.396       8.203       8.014       7.875       7.746       7.594       7.441       7.264    
        7.125       7.012       6.917       6.819       6.728       6.644       6.513       6.358       6.142       5.850    
        5.509       5.195       4.906       4.598       4.211       3.801       3.441       3.106       2.827       2.516    
        2.181       1.869       1.605       1.334       1.086      0.8959      0.6682      0.4105      0.1833       0.000    
  33    10.00       9.963       9.934       9.893       9.836       9.760       9.614       9.432       9.280       9.085    
        8.840       8.635       8.437       8.217       8.050       7.936       7.824       7.669       7.503       7.346    
        7.192       7.073       6.952       6.850       6.775       6.691       6.527       6.302       6.070       5.798    
        5.465       5.194       4.898       4.527       4.171       3.811       3.520       3.256       2.937       2.595    
        2.307       2.012       1.722       1.442       1.182      0.9697      0.7146      0.4124      0.1792       0.000    
  34    10.00       9.969       9.947       9.912       9.836       9.724       9.588       9.462       9.304       9.111    
        8.901       8.675       8.450       8.234       8.100       8.008       7.887       7.737       7.547       7.392    
        7.249       7.097       6.969       6.873       6.795       6.673       6.475       6.263       6.026       5.710    
        5.418       5.205       4.911       4.557       4.210       3.882       3.608       3.346       3.019       2.711    
        2.454       2.171       1.854       1.575       1.311       1.068      0.7640      0.4638      0.2432       0.000    
  35    10.00       9.974       9.947       9.896       9.802       9.691       9.594       9.485       9.356       9.146    
        8.912       8.683       8.454       8.279       8.163       8.066       7.933       7.772       7.584       7.400    
        7.235       7.089       6.959       6.869       6.782       6.659       6.449       6.201       5.924       5.597    
        5.382       5.156       4.865       4.607       4.320       3.979       3.679       3.461       3.154       2.828    
        2.580       2.290       1.973       1.698       1.424       1.158      0.8756      0.5803      0.2870       0.000    
  36    10.00       9.968       9.924       9.868       9.780       9.677       9.595       9.500       9.359       9.153    
        8.896       8.650       8.489       8.360       8.245       8.117       7.959       7.791       7.584       7.328    
        7.148       7.037       6.928       6.851       6.766       6.610       6.371       6.103       5.764       5.479    
        5.302       5.119       4.874       4.629       4.390       4.087       3.791       3.560       3.288       2.932    
        2.660       2.337       2.021       1.811       1.545       1.249      0.9658      0.6572      0.3215       0.000    
  37    10.00       9.950       9.903       9.846       9.760       9.670       9.576       9.484       9.353       9.111    
        8.841       8.655       8.562       8.436       8.291       8.161       7.959       7.747       7.472       7.206    
        7.097       7.003       6.897       6.812       6.709       6.515       6.275       5.918       5.615       5.437    
        5.288       5.097       4.858       4.667       4.425       4.140       3.909       3.688       3.382       2.991    
        2.635       2.332       2.112       1.895       1.628       1.347       1.064      0.7248      0.3980       0.000    
  38    10.00       9.943       9.881       9.822       9.746       9.659       9.559       9.458       9.306       9.078    
        8.876       8.731       8.611       8.495       8.333       8.112       7.879       7.625       7.315       7.145    
        7.059       6.932       6.818       6.748       6.626       6.415       6.061       5.733       5.580       5.447    
        5.292       5.093       4.879       4.690       4.455       4.196       4.008       3.783       3.393       2.962    
        2.654       2.401       2.183       1.959       1.723       1.437       1.155      0.8382      0.4142       0.000    
  39    10.00       9.926       9.866       9.811       9.738       9.638       9.531       9.427       9.283       9.096    
        8.938       8.826       8.690       8.524       8.278       7.994       7.731       7.429       7.214       7.110    
        6.971       6.823       6.736       6.668       6.547       6.262       5.916       5.727       5.591       5.455    
        5.280       5.093       4.888       4.700       4.523       4.312       4.064       3.792       3.408       3.007    
        2.681       2.420       2.249       2.061       1.795       1.513       1.226      0.8725      0.4088       0.000    
  40    10.00       9.917       9.859       9.804       9.727       9.624       9.519       9.415       9.287       9.131    
        9.000       8.899       8.724       8.456       8.141       7.856       7.577       7.322       7.170       7.032    
        6.869       6.743       6.673       6.583       6.422       6.167       5.940       5.756       5.605       5.464    
        5.293       5.094       4.902       4.746       4.591       4.378       4.092       3.808       3.417       2.988    
        2.683       2.476       2.287       2.127       1.847       1.538       1.276      0.8750      0.4073       0.000    
  41    10.00       9.924       9.857       9.789       9.706       9.625       9.537       9.440       9.312       9.169    
        9.043       8.917       8.682       8.358       8.034       7.768       7.496       7.256       7.105       6.952    
        6.789       6.680       6.600       6.493       6.328       6.141       5.991       5.814       5.626       5.461    
        5.298       5.120       4.937       4.802       4.637       4.424       4.139       3.746       3.299       2.968    
        2.747       2.547       2.352       2.128       1.837       1.541       1.317      0.9322      0.4227       0.000    
  42    10.00       9.924       9.846       9.787       9.726       9.650       9.556       9.445       9.336       9.225    
        9.059       8.835       8.561       8.252       7.950       7.709       7.442       7.211       7.046       6.874    
        6.723       6.626       6.535       6.439       6.294       6.166       6.040       5.839       5.629       5.481    
        5.349       5.154       4.959       4.828       4.676       4.449       4.098       3.636       3.226       2.980    
        2.813       2.635       2.386       2.088       1.809       1.577       1.345      0.9833      0.4851       0.000    
  43    10.00       9.917       9.852       9.800       9.751       9.678       9.585       9.479       9.356       9.179    
        8.960       8.729       8.472       8.150       7.881       7.658       7.418       7.183       6.975       6.814    
        6.680       6.582       6.507       6.429       6.307       6.177       6.049       5.840       5.658       5.550    
        5.389       5.179       4.992       4.857       4.679       4.386       3.981       3.542       3.244       3.055    
        2.878       2.672       2.367       2.062       1.815       1.591       1.391      0.9971      0.4557       0.000    
  44    10.00       9.916       9.859       9.813       9.754       9.699       9.621       9.477       9.292       9.085    
        8.901       8.667       8.357       8.088       7.874       7.617       7.354       7.104       6.898       6.758    
        6.660       6.578       6.504       6.423       6.318       6.185       6.013       5.841       5.718       5.590    
        5.446       5.263       5.048       4.843       4.626       4.298       3.873       3.513       3.282       3.100    
        2.921       2.677       2.382       2.118       1.854       1.614       1.368      0.9002      0.4140       0.000    
  45    10.00       9.925       9.872       9.812       9.754       9.706       9.577       9.405       9.216       9.039    
        8.887       8.573       8.251       8.056       7.824       7.538       7.252       7.021       6.855       6.745    
        6.671       6.594       6.513       6.419       6.302       6.172       6.027       5.895       5.787       5.654    
        5.487       5.298       5.076       4.818       4.559       4.206       3.807       3.523       3.348       3.160    
        2.922       2.643       2.390       2.149       1.915       1.676       1.278      0.8000      0.4026       0.000    
  46    10.00       9.940       9.883       9.812       9.745       9.649       9.508       9.378       9.219       9.030    
        8.776       8.477       8.220       7.971       7.724       7.446       7.181       7.011       6.875       6.770    
        6.696       6.621       6.517       6.400       6.288       6.178       6.064       5.943       5.835       5.717    
        5.567       5.367       5.116       4.809       4.440       4.073       3.778       3.578       3.395       3.199    
        2.917       2.620       2.368       2.177       1.954       1.643       1.190      0.7641      0.3767       0.000    
  47    10.00       9.951       9.897       9.826       9.712       9.585       9.465       9.362       9.216       8.965    
        8.661       8.387       8.163       7.956       7.693       7.392       7.158       6.997       6.888       6.800    
        6.719       6.631       6.522       6.399       6.290       6.204       6.110       5.991       5.866       5.750    
        5.619       5.452       5.118       4.688       4.328       4.065       3.818       3.646       3.484       3.213    
        2.869       2.555       2.327       2.195       1.948       1.567       1.125      0.7370      0.3724       0.000    
  48    10.00       9.956       9.900       9.794       9.677       9.567       9.447       9.342       9.195       8.911    
        8.580       8.350       8.167       7.912       7.606       7.335       7.159       6.997       6.888       6.819    
        6.737       6.631       6.514       6.401       6.312       6.244       6.160       6.028       5.884       5.759    
        5.622       5.421       5.072       4.716       4.395       4.105       3.884       3.708       3.500       3.156    
        2.787       2.545       2.363       2.130       1.806       1.468       1.089      0.7423      0.3930       0.000    
  49    10.00       9.953       9.869       9.767       9.678       9.561       9.443       9.333       9.147       8.846    
        8.550       8.331       8.101       7.843       7.613       7.360       7.115       6.964       6.898       6.834    
        6.755       6.634       6.498       6.400       6.332       6.282       6.185       6.033       5.882       5.768    
        5.620       5.355       5.048       4.796       4.527       4.206       3.921       3.703       3.459       3.090    
        2.793       2.580       2.330       1.994       1.707       1.402       1.071      0.7545      0.3842       0.000    
  50    10.00       9.941       9.848       9.755       9.683       9.573       9.443       9.303       9.101       8.864    
        8.564       8.270       8.031       7.826       7.641       7.357       7.078       6.964       6.906       6.844    
        6.769       6.632       6.487       6.398       6.344       6.297       6.189       6.026       5.881       5.766    
        5.603       5.325       5.089       4.873       4.582       4.262       3.974       3.684       3.333       3.007    
        2.849       2.626       2.260       1.923       1.682       1.392       1.104      0.7369      0.3027       0.000    

 HEAD WILL BE SAVED ON UNIT   51 AT END OF TIME STEP  29, STRESS PERIOD    2

 DRAWDOWN WILL BE SAVED ON UNIT   52 AT END OF TIME STEP  29, STRESS PERIOD    2
1
  VOLUMETRIC BUDGET FOR ENTIRE MODEL AT END OF TIME STEP 29 IN STRESS PERIOD   2
  ------------------------------------------------------------------------------

     CUMULATIVE VOLUMES      L**3       RATES FOR THIS TIME STEP      L**3/T
     ------------------                 ------------------------

           IN:                                      IN:
           ---                                      ---
             STORAGE =       14441.1826               STORAGE =         491.1611
       CONSTANT HEAD =       16255.1094         CONSTANT HEAD =         548.6306
               WELLS =           0.0000                 WELLS =           0.0000

            TOTAL IN =       30696.2930              TOTAL IN =        1039.7917

          OUT:                                     OUT:
          ----                                     ----
             STORAGE =       9.3745E-03               STORAGE =           0.0000
       CONSTANT HEAD =       16196.2783         CONSTANT HEAD =         539.7917
               WELLS =       14500.0000                 WELLS =         500.0000

           TOTAL OUT =       30696.2871             TOTAL OUT =        1039.7917

            IN - OUT =       5.8594E-03              IN - OUT =           0.0000

 PERCENT DISCREPANCY =           0.00     PERCENT DISCREPANCY =           0.00






          TIME SUMMARY AT END OF TIME STEP  29 IN STRESS PERIOD    2
                    SECONDS     MINUTES      HOURS       DAYS        YEARS
                    -----------------------------------------------------------
   TIME STEP LENGTH  86400.      1440.0      24.000      1.0000     2.73785E-03
 STRESS PERIOD TIME 2.50560E+06  41760.      696.00      29.000     7.93977E-02
         TOTAL TIME 2.59200E+06  43200.      720.00      30.000     8.21355E-02
1
 
 SOLVING FOR HEAD 

 OUTPUT CONTROL FOR STRESS PERIOD    2   TIME STEP  30
    SAVE HEAD FOR ALL LAYERS
    SAVE DRAWDOWN FOR ALL LAYERS
    SAVE BUDGET
    PRINT HEAD FOR ALL LAYERS
    PRINT BUDGET
 UBDSV1 SAVING "         STORAGE" ON UNIT  53 AT TIME STEP 30, STRESS PERIOD   2
 UBDSV2 SAVING "   CONSTANT HEAD" ON UNIT  53 AT TIME STEP 30, STRESS PERIOD   2
 UBDSV1 SAVING "FLOW RIGHT FACE " ON UNIT  53 AT TIME STEP 30, STRESS PERIOD   2
 UBDSV1 SAVING "FLOW FRONT FACE " ON UNIT  53 AT TIME STEP 30, STRESS PERIOD   2
1
              HEAD IN LAYER   1 AT END OF TIME STEP  30 IN STRESS PERIOD    2
  ---------------------------------------------------------------------------

            1           2           3           4           5           6           7           8           9          10
           11          12          13          14          15          16          17          18          19          20
           21          22          23          24          25          26          27          28          29          30
           31          32          33          34          35          36          37          38          39          40
           41          42          43          44          45          46          47          48          49          50
 ........................................................................................................................
   1    10.00       9.959       9.903       9.847       9.801       9.744       9.688       9.630       9.552       9.488    
        9.450       9.412       9.369       9.327       9.260       9.185       9.104       9.041       9.012       8.980    
        8.940       8.906       8.870       8.825       8.761       8.651       8.517       8.387       8.237       8.088    
        7.875       7.538       7.142       6.725       6.257       5.825       5.459       5.119       4.655       4.151    
        3.721       3.297       2.711       2.155       1.766       1.376       1.049      0.8383      0.5559       0.000    
   2    10.00       9.959       9.909       9.853       9.803       9.751       9.689       9.612       9.537       9.488    
        9.454       9.420       9.387       9.335       9.257       9.180       9.106       9.044       9.013       8.976    
        8.936       8.909       8.881       8.833       8.760       8.655       8.521       8.385       8.244       8.095    
        7.865       7.518       7.102       6.630       6.159       5.742       5.415       5.081       4.611       4.139    
        3.705       3.194       2.665       2.224       1.838       1.474       1.101      0.7961      0.4250       0.000    
   3    10.00       9.955       9.907       9.856       9.805       9.745       9.668       9.596       9.548       9.503    
        9.464       9.434       9.402       9.352       9.275       9.179       9.101       9.049       9.010       8.974    
        8.940       8.912       8.884       8.824       8.746       8.640       8.513       8.411       8.262       8.085    
        7.790       7.387       6.946       6.490       6.054       5.666       5.373       5.030       4.522       4.062    
        3.701       3.234       2.745       2.322       1.920       1.553       1.111      0.6831      0.3004       0.000    
   4    10.00       9.958       9.909       9.854       9.792       9.723       9.649       9.595       9.554       9.512    
        9.478       9.453       9.417       9.364       9.293       9.188       9.101       9.053       9.011       8.977    
        8.939       8.906       8.870       8.807       8.728       8.626       8.503       8.389       8.273       8.052    
        7.673       7.183       6.713       6.365       6.037       5.659       5.282       4.848       4.420       4.083    
        3.760       3.346       2.855       2.437       2.014       1.569       1.060      0.6067      0.2826       0.000    
   5    10.00       9.955       9.904       9.840       9.776       9.712       9.648       9.602       9.559       9.523    
        9.493       9.466       9.425       9.363       9.280       9.185       9.111       9.059       9.016       8.969    
        8.925       8.891       8.846       8.781       8.707       8.591       8.469       8.371       8.255       7.976    
        7.482       6.949       6.561       6.295       5.998       5.613       5.185       4.757       4.450       4.163    
        3.870       3.441       2.929       2.562       2.132       1.549      0.9645      0.5600      0.2817       0.000    
   6    10.00       9.945       9.883       9.834       9.774       9.707       9.653       9.611       9.568       9.534    
        9.506       9.474       9.420       9.349       9.278       9.199       9.119       9.055       9.001       8.947    
        8.908       8.872       8.831       8.762       8.654       8.543       8.452       8.345       8.154       7.756    
        7.211       6.732       6.436       6.234       5.992       5.572       5.105       4.761       4.535       4.282    
        3.996       3.606       3.096       2.639       2.106       1.482      0.8648      0.4924      0.2751       0.000    
   7    10.00       9.929       9.871       9.823       9.765       9.717       9.666       9.623       9.586       9.550    
        9.514       9.467       9.403       9.334       9.270       9.205       9.117       9.031       8.973       8.929    
        8.891       8.852       8.809       8.719       8.609       8.519       8.419       8.252       7.935       7.434    
        6.918       6.544       6.358       6.199       5.895       5.482       5.172       4.868       4.620       4.442    
        4.151       3.746       3.199       2.607       1.951       1.234      0.7247      0.5000      0.2532       0.000    
   8    10.00       9.924       9.871       9.820       9.768       9.725       9.681       9.640       9.604       9.570    
        9.518       9.450       9.383       9.322       9.262       9.183       9.079       8.998       8.954       8.912    
        8.867       8.834       8.765       8.671       8.573       8.467       8.283       8.021       7.593       7.161    
        6.774       6.473       6.330       6.137       5.796       5.476       5.218       4.994       4.791       4.580    
        4.276       3.776       3.144       2.469       1.722       1.114      0.7669      0.4904      0.2259       0.000    
   9    10.00       9.928       9.868       9.817       9.781       9.744       9.702       9.661       9.621       9.582    
        9.516       9.434       9.365       9.303       9.232       9.143       9.050       8.978       8.932       8.888    
        8.847       8.794       8.700       8.613       8.514       8.371       8.107       7.716       7.294       6.983    
        6.676       6.451       6.290       6.034       5.719       5.470       5.284       5.109       4.935       4.704    
        4.327       3.804       3.131       2.377       1.688       1.153      0.7822      0.4863      0.2411       0.000    
  10    10.00       9.927       9.866       9.824       9.792       9.757       9.720       9.684       9.637       9.576    
        9.498       9.415       9.348       9.280       9.206       9.105       9.010       8.953       8.911       8.866    
        8.825       8.739       8.638       8.544       8.410       8.200       7.814       7.388       7.052       6.816    
        6.629       6.441       6.229       5.967       5.695       5.501       5.357       5.212       5.016       4.748    
        4.342       3.769       3.048       2.374       1.829       1.321      0.8375      0.5163      0.2720       0.000    
  11    10.00       9.917       9.871       9.836       9.803       9.772       9.739       9.692       9.627       9.559    
        9.480       9.400       9.335       9.247       9.146       9.057       8.989       8.935       8.893       8.844    
        8.771       8.662       8.521       8.382       8.155       7.844       7.501       7.212       6.935       6.760    
        6.602       6.362       6.120       5.925       5.739       5.591       5.446       5.258       5.026       4.712    
        4.330       3.822       3.090       2.474       1.989       1.502      0.9643      0.5111      0.2052       0.000    
  12    10.00       9.925       9.879       9.842       9.814       9.783       9.746       9.683       9.607       9.537    
        9.463       9.384       9.298       9.192       9.109       9.033       8.962       8.915       8.864       8.790    
        8.652       8.469       8.273       8.068       7.788       7.548       7.359       7.067       6.833       6.689    
        6.519       6.299       6.100       5.932       5.806       5.672       5.498       5.285       5.007       4.675    
        4.298       3.800       3.128       2.576       2.136       1.608       1.014      0.4830      0.1606       0.000    
  13    10.00       9.941       9.899       9.859       9.824       9.788       9.735       9.659       9.579       9.511    
        9.434       9.355       9.265       9.157       9.062       8.986       8.936       8.877       8.806       8.641    
        8.393       8.171       7.957       7.701       7.479       7.366       7.138       6.872       6.745       6.621    
        6.436       6.241       6.095       5.972       5.865       5.742       5.540       5.274       4.999       4.655    
        4.278       3.770       3.075       2.558       2.150       1.573      0.9438      0.4367      0.1262       0.000    
  14    10.00       9.957       9.919       9.877       9.835       9.781       9.705       9.625       9.554       9.477    
        9.401       9.328       9.223       9.103       9.017       8.956       8.877       8.792       8.628       8.341    
        8.075       7.873       7.591       7.378       7.274       7.147       6.912       6.753       6.632       6.512    
        6.352       6.222       6.129       6.022       5.909       5.778       5.553       5.258       4.963       4.612    
        4.206       3.593       2.938       2.521       2.021       1.467      0.9313      0.3991      0.1027       0.000    
  15    10.00       9.966       9.928       9.886       9.838       9.757       9.664       9.594       9.524       9.450    
        9.392       9.309       9.172       9.043       8.964       8.862       8.758       8.650       8.376       8.037    
        7.814       7.528       7.266       7.181       7.113       6.950       6.760       6.604       6.514       6.423    
        6.318       6.237       6.159       6.068       5.946       5.785       5.525       5.190       4.879       4.554    
        4.114       3.516       2.948       2.387       1.783       1.288      0.8010      0.3518      0.1056       0.000    
  16    10.00       9.975       9.938       9.889       9.815       9.716       9.636       9.579       9.516       9.440    
        9.363       9.246       9.091       8.967       8.855       8.735       8.662       8.450       8.052       7.734    
        7.504       7.218       7.115       7.060       6.939       6.736       6.580       6.502       6.464       6.397    
        6.315       6.248       6.186       6.089       5.942       5.743       5.431       5.125       4.877       4.526    
        4.025       3.380       2.729       2.107       1.594       1.104      0.6827      0.3341      0.1127       0.000    
  17    10.00       9.975       9.936       9.872       9.781       9.682       9.616       9.564       9.495       9.411    
        9.286       9.138       8.999       8.864       8.727       8.610       8.436       8.080       7.701       7.475    
        7.246       7.064       6.982       6.864       6.676       6.522       6.477       6.459       6.431       6.369    
        6.303       6.248       6.190       6.102       5.899       5.625       5.354       5.134       4.897       4.454    
        3.785       3.130       2.510       1.900       1.363      0.8937      0.5724      0.2989      0.1228       0.000    
  18    10.00       9.970       9.924       9.848       9.735       9.656       9.604       9.534       9.456       9.342    
        9.192       9.060       8.920       8.741       8.560       8.368       8.112       7.745       7.455       7.254    
        7.064       6.908       6.784       6.616       6.485       6.440       6.426       6.416       6.383       6.334    
        6.289       6.242       6.175       6.031       5.818       5.582       5.349       5.151       4.819       4.229    
        3.546       2.851       2.191       1.692       1.265      0.8379      0.4916      0.2472      0.1184       0.000    
  19    10.00       9.963       9.913       9.803       9.691       9.645       9.587       9.502       9.407       9.284    
        9.148       9.024       8.823       8.552       8.337       8.137       7.822       7.480       7.280       7.123    
        6.925       6.737       6.600       6.469       6.402       6.384       6.375       6.353       6.319       6.294    
        6.265       6.222       6.125       5.981       5.797       5.565       5.350       5.066       4.502       3.894    
        3.345       2.627       2.002       1.606       1.182      0.7559      0.4438      0.2517      0.1289       0.000    
  20    10.00       9.955       9.871       9.759       9.678       9.628       9.566       9.476       9.370       9.259    
        9.119       8.932       8.633       8.361       8.167       7.917       7.600       7.409       7.226       7.006    
        6.787       6.617       6.474       6.380       6.331       6.306       6.276       6.265       6.247       6.242    
        6.227       6.186       6.083       5.941       5.750       5.544       5.276       4.763       4.156       3.672    
        3.079       2.420       1.953       1.570       1.143      0.6705      0.3874      0.2619      0.1349       0.000    
  21    10.00       9.926       9.836       9.743       9.663       9.611       9.545       9.440       9.335       9.231    
        9.045       8.760       8.453       8.245       8.026       7.760       7.521       7.339       7.117       6.883    
        6.671       6.505       6.379       6.280       6.213       6.164       6.148       6.154       6.155       6.164    
        6.168       6.121       6.014       5.872       5.676       5.448       5.032       4.493       4.011       3.423    
        2.863       2.345       1.950       1.563      0.9617      0.5423      0.3920      0.2957      0.1418       0.000    
  22    10.00       9.906       9.800       9.717       9.654       9.591       9.499       9.402       9.309       9.166    
        8.929       8.605       8.357       8.169       7.922       7.646       7.415       7.220       7.015       6.792    
        6.582       6.405       6.238       6.087       6.002       5.982       6.000       6.015       6.050       6.070    
        6.079       6.025       5.932       5.783       5.579       5.350       4.920       4.395       3.766       3.199    
        2.794       2.380       1.906       1.258      0.7491      0.5403      0.4107      0.2734      0.1011       0.000    
  23    10.00       9.879       9.776       9.711       9.645       9.552       9.451       9.379       9.262       9.082    
        8.803       8.524       8.346       8.111       7.788       7.511       7.327       7.167       6.975       6.735    
        6.512       6.306       6.067       5.786       5.581       5.625       5.760       5.849       5.926       5.976    
        5.985       5.940       5.847       5.709       5.514       5.252       4.816       4.167       3.538       3.139    
        2.766       2.244       1.566       1.013      0.7367      0.5507      0.3939      0.2323      9.2434E-02   0.000    
  24    10.00       9.861       9.787       9.709       9.615       9.519       9.441       9.361       9.248       9.009    
        8.745       8.539       8.338       8.023       7.666       7.465       7.310       7.153       6.934       6.708    
        6.510       6.249       5.866       5.334       4.683       4.955       5.358       5.637       5.799       5.878    
        5.902       5.863       5.782       5.629       5.416       5.093       4.545       3.934       3.462       3.045    
        2.588       2.008       1.404      0.9814      0.7377      0.5363      0.3592      0.2516      0.1235       0.000    
  25    10.00       9.877       9.801       9.703       9.605       9.517       9.440       9.366       9.196       8.963    
        8.759       8.550       8.285       7.937       7.672       7.494       7.319       7.130       6.929       6.735    
        6.508       6.258       5.714       4.698       2.882       4.245       4.986       5.425       5.691       5.818    
        5.847       5.813       5.721       5.516       5.232       4.805       4.296       3.816       3.410       2.921    
        2.370       1.817       1.308      0.9723      0.7644      0.5572      0.3784      0.2635      0.1640       0.000    
  26    10.00       9.894       9.820       9.717       9.612       9.531       9.449       9.339       9.171       9.008    
        8.817       8.530       8.204       7.922       7.722       7.550       7.348       7.115       6.921       6.758    
        6.570       6.325       5.857       5.115       4.290       4.652       5.105       5.434       5.679       5.807    
        5.817       5.770       5.635       5.395       5.086       4.680       4.121       3.669       3.292       2.703    
        2.083       1.599       1.295       1.062      0.8243      0.6015      0.4124      0.2862      0.1672       0.000    
  27    10.00       9.916       9.824       9.732       9.641       9.545       9.453       9.341       9.202       9.053    
        8.810       8.485       8.199       7.965       7.799       7.601       7.337       7.096       6.945       6.813    
        6.667       6.443       6.092       5.659       5.224       5.207       5.385       5.596       5.768       5.824    
        5.802       5.740       5.585       5.326       4.967       4.423       3.904       3.537       2.971       2.358    
        1.879       1.569       1.341       1.136      0.9012      0.6564      0.4479      0.3149      0.1987       0.000    
  28    10.00       9.921       9.846       9.762       9.673       9.571       9.469       9.361       9.239       9.063    
        8.777       8.493       8.244       8.016       7.840       7.645       7.431       7.202       6.992       6.857    
        6.742       6.583       6.359       6.052       5.792       5.645       5.686       5.813       5.862       5.855    
        5.800       5.708       5.519       5.197       4.731       4.176       3.738       3.229       2.646       2.214    
        1.875       1.612       1.389       1.175      0.9468      0.7162      0.5081      0.3585      0.2049       0.000    
  29    10.00       9.927       9.853       9.787       9.699       9.608       9.507       9.396       9.262       9.025    
        8.757       8.515       8.278       8.086       7.886       7.679       7.486       7.304       7.107       6.931    
        6.808       6.688       6.542       6.362       6.120       6.002       5.988       5.988       5.972       5.896    
        5.791       5.624       5.403       4.991       4.438       3.964       3.531       3.008       2.545       2.231    
        1.955       1.668       1.414       1.210       1.004      0.7574      0.5369      0.3746      0.2077       0.000    
  30    10.00       9.936       9.875       9.817       9.739       9.648       9.557       9.430       9.248       9.032    
        8.760       8.497       8.302       8.110       7.919       7.734       7.579       7.413       7.223       7.038    
        6.889       6.788       6.666       6.546       6.415       6.299       6.250       6.156       6.069       5.932    
        5.737       5.465       5.170       4.749       4.328       3.892       3.433       2.947       2.599       2.315    
        1.989       1.701       1.480       1.247       1.002      0.7836      0.5721      0.3978      0.2235       0.000    
  31    10.00       9.949       9.899       9.843       9.784       9.710       9.607       9.448       9.240       9.011    
        8.749       8.513       8.335       8.147       7.970       7.799       7.647       7.517       7.326       7.142    
        7.008       6.901       6.805       6.706       6.623       6.514       6.400       6.289       6.133       5.921    
        5.613       5.284       4.993       4.665       4.269       3.811       3.351       2.956       2.713       2.442    
        2.080       1.764       1.512       1.276       1.049      0.8241      0.6062      0.4186      0.2167       0.000    
  32    10.00       9.956       9.920       9.871       9.815       9.744       9.633       9.448       9.258       9.041    
        8.771       8.553       8.386       8.191       8.001       7.861       7.731       7.578       7.424       7.246    
        7.105       6.992       6.898       6.800       6.709       6.626       6.495       6.341       6.127       5.838    
        5.500       5.189       4.901       4.595       4.209       3.800       3.440       3.106       2.826       2.516    
        2.181       1.869       1.605       1.333       1.086      0.8959      0.6682      0.4105      0.1833       0.000    
  33    10.00       9.963       9.934       9.892       9.835       9.759       9.612       9.430       9.276       9.081    
        8.833       8.627       8.427       8.206       8.038       7.923       7.810       7.655       7.487       7.329    
        7.175       7.055       6.935       6.833       6.758       6.674       6.511       6.288       6.059       5.789    
        5.459       5.189       4.894       4.525       4.169       3.810       3.519       3.255       2.937       2.595    
        2.307       2.012       1.722       1.442       1.181      0.9696      0.7146      0.4123      0.1792       0.000    
  34    10.00       9.969       9.947       9.911       9.836       9.723       9.587       9.460       9.301       9.107    
        8.895       8.668       8.441       8.224       8.089       7.997       7.875       7.724       7.533       7.377    
        7.234       7.082       6.954       6.858       6.779       6.659       6.462       6.252       6.017       5.703    
        5.414       5.202       4.909       4.555       4.209       3.881       3.608       3.345       3.019       2.711    
        2.454       2.171       1.854       1.575       1.311       1.068      0.7640      0.4638      0.2432       0.000    
  35    10.00       9.974       9.947       9.895       9.801       9.690       9.593       9.483       9.353       9.142    
        8.907       8.677       8.446       8.270       8.154       8.055       7.922       7.760       7.572       7.386    
        7.222       7.077       6.947       6.857       6.770       6.647       6.439       6.193       5.917       5.593    
        5.379       5.153       4.863       4.606       4.319       3.978       3.679       3.461       3.154       2.828    
        2.580       2.290       1.973       1.698       1.424       1.158      0.8756      0.5803      0.2870       0.000    
  36    10.00       9.968       9.924       9.867       9.779       9.676       9.594       9.498       9.357       9.150    
        8.891       8.645       8.482       8.352       8.236       8.108       7.949       7.781       7.574       7.317    
        7.138       7.027       6.918       6.841       6.756       6.601       6.364       6.096       5.760       5.476    
        5.300       5.118       4.873       4.628       4.390       4.087       3.791       3.560       3.288       2.931    
        2.660       2.337       2.021       1.811       1.545       1.249      0.9658      0.6572      0.3215       0.000    
  37    10.00       9.950       9.903       9.846       9.760       9.669       9.575       9.482       9.351       9.108    
        8.837       8.650       8.556       8.430       8.283       8.153       7.951       7.738       7.464       7.198    
        7.089       6.995       6.889       6.804       6.701       6.508       6.269       5.915       5.613       5.435    
        5.287       5.096       4.857       4.666       4.425       4.140       3.909       3.688       3.382       2.990    
        2.635       2.332       2.112       1.895       1.628       1.347       1.064      0.7248      0.3979       0.000    
  38    10.00       9.943       9.881       9.821       9.745       9.658       9.558       9.457       9.304       9.075    
        8.873       8.726       8.606       8.489       8.327       8.105       7.872       7.618       7.309       7.139    
        7.052       6.926       6.812       6.742       6.620       6.409       6.058       5.731       5.579       5.446    
        5.291       5.092       4.878       4.690       4.454       4.196       4.008       3.783       3.392       2.962    
        2.654       2.401       2.183       1.959       1.723       1.437       1.155      0.8382      0.4142       0.000    
  39    10.00       9.926       9.865       9.811       9.737       9.638       9.530       9.425       9.281       9.094    
        8.935       8.822       8.686       8.520       8.273       7.989       7.726       7.425       7.210       7.105    
        6.966       6.818       6.732       6.663       6.543       6.259       5.914       5.726       5.590       5.454    
        5.279       5.092       4.888       4.700       4.523       4.312       4.064       3.792       3.408       3.007    
        2.681       2.420       2.249       2.061       1.795       1.513       1.226      0.8725      0.4088       0.000    
  40    10.00       9.917       9.859       9.803       9.726       9.623       9.518       9.414       9.286       9.129    
        8.997       8.896       8.721       8.452       8.138       7.852       7.573       7.319       7.166       7.028    
        6.866       6.739       6.670       6.580       6.419       6.165       5.939       5.755       5.604       5.463    
        5.293       5.093       4.901       4.746       4.591       4.377       4.092       3.807       3.417       2.987    
        2.683       2.476       2.287       2.127       1.847       1.538       1.276      0.8750      0.4073       0.000    
  41    10.00       9.924       9.856       9.789       9.706       9.624       9.536       9.439       9.311       9.168    
        9.042       8.915       8.680       8.356       8.032       7.766       7.494       7.253       7.102       6.949    
        6.787       6.678       6.597       6.491       6.326       6.140       5.990       5.813       5.626       5.460    
        5.298       5.119       4.936       4.801       4.637       4.424       4.139       3.746       3.299       2.968    
        2.747       2.547       2.351       2.128       1.837       1.541       1.317      0.9322      0.4227       0.000    
  42    10.00       9.924       9.846       9.787       9.726       9.650       9.555       9.445       9.335       9.224    
        9.058       8.834       8.560       8.250       7.949       7.707       7.440       7.209       7.044       6.872    
        6.721       6.624       6.534       6.438       6.292       6.165       6.039       5.838       5.628       5.480    
        5.349       5.154       4.959       4.828       4.676       4.449       4.098       3.636       3.226       2.980    
        2.813       2.635       2.386       2.088       1.809       1.577       1.345      0.9833      0.4851       0.000    
  43    10.00       9.917       9.851       9.800       9.751       9.678       9.585       9.479       9.355       9.178    
        8.959       8.728       8.471       8.149       7.880       7.656       7.417       7.182       6.974       6.813    
        6.678       6.581       6.506       6.428       6.306       6.176       6.048       5.839       5.657       5.549    
        5.389       5.179       4.991       4.857       4.679       4.386       3.980       3.542       3.244       3.055    
        2.878       2.672       2.367       2.061       1.815       1.591       1.391      0.9971      0.4557       0.000    
  44    10.00       9.916       9.859       9.813       9.754       9.698       9.621       9.477       9.291       9.085    
        8.900       8.667       8.356       8.087       7.873       7.616       7.353       7.103       6.897       6.757    
        6.659       6.577       6.503       6.422       6.317       6.184       6.012       5.840       5.718       5.589    
        5.445       5.263       5.047       4.843       4.626       4.298       3.873       3.513       3.282       3.100    
        2.921       2.677       2.382       2.118       1.854       1.614       1.368      0.9002      0.4140       0.000    
  45    10.00       9.925       9.872       9.812       9.754       9.705       9.577       9.405       9.216       9.038    
        8.886       8.573       8.251       8.055       7.823       7.537       7.251       7.020       6.854       6.744    
        6.670       6.594       6.512       6.418       6.301       6.171       6.026       5.894       5.787       5.653    
        5.487       5.298       5.076       4.818       4.559       4.206       3.807       3.523       3.348       3.160    
        2.922       2.643       2.390       2.149       1.915       1.676       1.278      0.8000      0.4026       0.000    
  46    10.00       9.940       9.883       9.812       9.745       9.649       9.508       9.377       9.219       9.029    
        8.776       8.477       8.219       7.971       7.723       7.446       7.180       7.010       6.875       6.770    
        6.695       6.620       6.517       6.399       6.287       6.177       6.063       5.943       5.834       5.716    
        5.566       5.367       5.115       4.809       4.439       4.073       3.778       3.578       3.395       3.199    
        2.917       2.620       2.368       2.177       1.954       1.643       1.190      0.7641      0.3767       0.000    
  47    10.00       9.951       9.896       9.826       9.712       9.585       9.464       9.362       9.216       8.965    
        8.661       8.387       8.163       7.955       7.692       7.391       7.157       6.996       6.887       6.799    
        6.718       6.630       6.521       6.398       6.289       6.203       6.109       5.990       5.866       5.750    
        5.619       5.452       5.118       4.688       4.328       4.065       3.818       3.646       3.484       3.213    
        2.869       2.555       2.327       2.195       1.948       1.567       1.125      0.7370      0.3724       0.000    
  48    10.00       9.956       9.900       9.794       9.677       9.567       9.446       9.342       9.194       8.911    
        8.579       8.350       8.166       7.912       7.606       7.334       7.158       6.996       6.888       6.819    
        6.736       6.631       6.514       6.401       6.311       6.243       6.159       6.028       5.884       5.759    
        5.622       5.420       5.072       4.716       4.395       4.105       3.884       3.707       3.500       3.156    
        2.787       2.545       2.363       2.130       1.806       1.468       1.089      0.7423      0.3930       0.000    
  49    10.00       9.953       9.869       9.767       9.678       9.560       9.443       9.333       9.146       8.846    
        8.550       8.330       8.100       7.843       7.612       7.359       7.115       6.964       6.897       6.833    
        6.755       6.633       6.498       6.400       6.332       6.281       6.185       6.033       5.881       5.768    
        5.619       5.355       5.048       4.796       4.526       4.206       3.921       3.703       3.459       3.090    
        2.793       2.580       2.330       1.994       1.707       1.402       1.071      0.7545      0.3842       0.000    
  50    10.00       9.941       9.848       9.755       9.683       9.573       9.443       9.303       9.101       8.864    
        8.564       8.270       8.031       7.826       7.640       7.357       7.078       6.964       6.906       6.843    
        6.768       6.631       6.486       6.397       6.343       6.297       6.189       6.026       5.881       5.765    
        5.603       5.325       5.089       4.873       4.581       4.262       3.974       3.684       3.333       3.007    
        2.849       2.626       2.260       1.923       1.682       1.392       1.104      0.7369      0.3027       0.000    

 HEAD WILL BE SAVED ON UNIT   51 AT END OF TIME STEP  30, STRESS PERIOD    2

 DRAWDOWN WILL BE SAVED ON UNIT   52 AT END OF TIME STEP  30, STRESS PERIOD    2
1
  VOLUMETRIC BUDGET FOR ENTIRE MODEL AT END OF TIME STEP 30 IN STRESS PERIOD   2
  ------------------------------------------------------------------------------

     CUMULATIVE VOLUMES      L**3       RATES FOR THIS TIME STEP      L**3/T
     ------------------                 ------------------------

           IN:                                      IN:
           ---                                      ---
             STORAGE =       14931.3057               STORAGE =         490.1226
       CONSTANT HEAD =       16804.7578         CONSTANT HEAD =         549.6494
               WELLS =           0.0000                 WELLS =           0.0000

            TOTAL IN =       31736.0625              TOTAL IN =        1039.7720

          OUT:                                     OUT:
          ----                                     ----
             STORAGE =       9.3745E-03               STORAGE =           0.0000
       CONSTANT HEAD =       16736.0508         CONSTANT HEAD =         539.7717
               WELLS =       15000.0000                 WELLS =         500.0000

           TOTAL OUT =       31736.0605             TOTAL OUT =        1039.7717

            IN - OUT =       1.9531E-03              IN - OUT =       2.4414E-04

 PERCENT DISCREPANCY =           0.00     PERCENT DISCREPANCY =           0.00






          TIME SUMMARY AT END OF TIME STEP  30 IN STRESS PERIOD    2
                    SECONDS     MINUTES      HOURS       DAYS        YEARS
                    -----------------------------------------------------------
   TIME STEP LENGTH  86400.      1440.0      24.000      1.0000     2.73785E-03
 STRESS PERIOD TIME 2.59200E+06  43200.      720.00      30.000     8.21355E-02
         TOTAL TIME 2.67840E+06  44640.      744.00      31.000     8.48734E-02
1
 
 SOLVING FOR HEAD 

 OUTPUT CONTROL FOR STRESS PERIOD    2   TIME STEP  31
    SAVE HEAD FOR ALL LAYERS
    SAVE DRAWDOWN FOR ALL LAYERS
    SAVE BUDGET
    PRINT HEAD FOR ALL LAYERS
    PRINT BUDGET
 UBDSV1 SAVING "         STORAGE" ON UNIT  53 AT TIME STEP 31, STRESS PERIOD   2
 UBDSV2 SAVING "   CONSTANT HEAD" ON UNIT  53 AT TIME STEP 31, STRESS PERIOD   2
 UBDSV1 SAVING "FLOW RIGHT FACE " ON UNIT  53 AT TIME STEP 31, STRESS PERIOD   2
 UBDSV1 SAVING "FLOW FRONT FACE " ON UNIT  53 AT TIME STEP 31, STRESS PERIOD   2
1
              HEAD IN LAYER   1 AT END OF TIME STEP  31 IN STRESS PERIOD    2
  ---------------------------------------------------------------------------

            1           2           3           4           5           6           7           8           9          10
           11          12          13          14          15          16          17          18          19          20
           21          22          23          24          25          26          27          28          29          30
           31          32          33          34          35          36          37          38          39          40
           41          42          43          44          45          46          47          48          49          50
 ........................................................................................................................
   1    10.00       9.959       9.903       9.847       9.801       9.744       9.688       9.629       9.551       9.487    
        9.449       9.410       9.368       9.326       9.258       9.183       9.102       9.039       9.010       8.978    
        8.938       8.903       8.868       8.822       8.759       8.649       8.515       8.385       8.235       8.086    
        7.874       7.537       7.141       6.723       6.256       5.824       5.459       5.119       4.654       4.150    
        3.721       3.296       2.710       2.155       1.766       1.376       1.049      0.8382      0.5558       0.000    
   2    10.00       9.959       9.908       9.852       9.803       9.750       9.688       9.612       9.536       9.487    
        9.453       9.418       9.386       9.333       9.255       9.178       9.104       9.042       9.011       8.974    
        8.934       8.907       8.879       8.831       8.758       8.653       8.519       8.383       8.242       8.093    
        7.864       7.517       7.100       6.629       6.158       5.741       5.414       5.081       4.610       4.138    
        3.704       3.193       2.664       2.224       1.837       1.474       1.101      0.7960      0.4250       0.000    
   3    10.00       9.955       9.907       9.855       9.805       9.745       9.668       9.595       9.547       9.502    
        9.462       9.432       9.400       9.351       9.273       9.177       9.099       9.047       9.008       8.972    
        8.938       8.910       8.881       8.821       8.744       8.638       8.511       8.409       8.260       8.083    
        7.788       7.386       6.944       6.488       6.053       5.665       5.372       5.029       4.521       4.061    
        3.700       3.233       2.745       2.322       1.919       1.552       1.111      0.6831      0.3004       0.000    
   4    10.00       9.958       9.909       9.853       9.791       9.722       9.648       9.594       9.553       9.511    
        9.477       9.451       9.416       9.362       9.291       9.186       9.099       9.051       9.009       8.975    
        8.937       8.903       8.868       8.805       8.726       8.623       8.500       8.386       8.271       8.050    
        7.671       7.182       6.711       6.363       6.036       5.658       5.281       4.847       4.418       4.081    
        3.759       3.345       2.855       2.436       2.014       1.569       1.060      0.6066      0.2825       0.000    
   5    10.00       9.955       9.904       9.840       9.776       9.711       9.647       9.601       9.558       9.522    
        9.492       9.465       9.424       9.362       9.279       9.183       9.109       9.056       9.014       8.967    
        8.923       8.888       8.843       8.778       8.705       8.589       8.466       8.368       8.253       7.974    
        7.480       6.946       6.559       6.293       5.996       5.612       5.183       4.755       4.448       4.162    
        3.869       3.440       2.928       2.562       2.132       1.549      0.9644      0.5599      0.2816       0.000    
   6    10.00       9.945       9.883       9.833       9.773       9.706       9.652       9.610       9.567       9.533    
        9.505       9.472       9.419       9.347       9.276       9.197       9.117       9.053       8.998       8.944    
        8.906       8.869       8.828       8.759       8.651       8.540       8.449       8.343       8.151       7.753    
        7.208       6.728       6.432       6.230       5.989       5.569       5.103       4.759       4.533       4.280    
        3.994       3.605       3.095       2.639       2.106       1.482      0.8647      0.4924      0.2751       0.000    
   7    10.00       9.929       9.871       9.823       9.765       9.717       9.665       9.622       9.585       9.549    
        9.513       9.466       9.402       9.332       9.268       9.203       9.115       9.028       8.970       8.926    
        8.888       8.849       8.806       8.716       8.605       8.515       8.416       8.249       7.932       7.430    
        6.914       6.539       6.354       6.195       5.891       5.478       5.168       4.865       4.617       4.440    
        4.149       3.745       3.198       2.607       1.950       1.234      0.7246      0.4999      0.2531       0.000    
   8    10.00       9.924       9.871       9.819       9.767       9.725       9.680       9.639       9.603       9.569    
        9.517       9.449       9.382       9.321       9.260       9.181       9.077       8.995       8.951       8.909    
        8.864       8.830       8.762       8.667       8.569       8.464       8.279       8.017       7.588       7.155    
        6.768       6.468       6.325       6.132       5.792       5.472       5.214       4.990       4.788       4.577    
        4.274       3.775       3.143       2.468       1.721       1.114      0.7668      0.4903      0.2259       0.000    
   9    10.00       9.928       9.868       9.817       9.780       9.744       9.701       9.660       9.620       9.581    
        9.515       9.433       9.363       9.301       9.229       9.141       9.047       8.975       8.928       8.884    
        8.844       8.790       8.696       8.609       8.510       8.366       8.102       7.710       7.287       6.976    
        6.669       6.444       6.284       6.028       5.714       5.464       5.279       5.105       4.931       4.701    
        4.324       3.803       3.130       2.376       1.688       1.153      0.7822      0.4863      0.2411       0.000    
  10    10.00       9.927       9.866       9.824       9.791       9.756       9.719       9.683       9.636       9.575    
        9.496       9.413       9.346       9.278       9.203       9.102       9.007       8.949       8.907       8.863    
        8.821       8.735       8.634       8.539       8.405       8.194       7.806       7.380       7.043       6.807    
        6.620       6.433       6.222       5.960       5.688       5.495       5.352       5.207       5.012       4.745    
        4.340       3.767       3.047       2.373       1.828       1.321      0.8374      0.5162      0.2720       0.000    
  11    10.00       9.917       9.870       9.835       9.802       9.772       9.739       9.691       9.626       9.557    
        9.479       9.398       9.333       9.245       9.143       9.054       8.986       8.931       8.889       8.840    
        8.766       8.657       8.515       8.376       8.147       7.835       7.491       7.202       6.925       6.750    
        6.592       6.353       6.112       5.917       5.732       5.584       5.440       5.253       5.022       4.708    
        4.328       3.820       3.089       2.473       1.989       1.501      0.9642      0.5111      0.2051       0.000    
  12    10.00       9.924       9.878       9.841       9.814       9.782       9.746       9.683       9.605       9.535    
        9.461       9.382       9.295       9.189       9.105       9.029       8.958       8.911       8.859       8.785    
        8.647       8.462       8.265       8.059       7.777       7.536       7.347       7.055       6.821       6.677    
        6.508       6.288       6.091       5.923       5.798       5.665       5.491       5.280       5.002       4.672    
        4.295       3.799       3.127       2.575       2.135       1.608       1.014      0.4830      0.1606       0.000    
  13    10.00       9.941       9.898       9.859       9.823       9.787       9.734       9.658       9.578       9.509    
        9.432       9.352       9.262       9.153       9.058       8.982       8.931       8.873       8.800       8.634    
        8.385       8.160       7.945       7.688       7.465       7.352       7.123       6.857       6.731       6.608    
        6.424       6.230       6.084       5.962       5.856       5.733       5.533       5.268       4.994       4.651    
        4.275       3.768       3.074       2.558       2.150       1.573      0.9438      0.4367      0.1262       0.000    
  14    10.00       9.957       9.919       9.877       9.835       9.780       9.704       9.623       9.552       9.475    
        9.398       9.325       9.219       9.099       9.013       8.951       8.871       8.786       8.621       8.331    
        8.063       7.860       7.576       7.362       7.257       7.131       6.896       6.737       6.616       6.497    
        6.338       6.209       6.116       6.010       5.899       5.769       5.545       5.252       4.958       4.608    
        4.204       3.591       2.938       2.521       2.021       1.467      0.9312      0.3991      0.1027       0.000    
  15    10.00       9.966       9.928       9.886       9.838       9.756       9.663       9.593       9.522       9.448    
        9.389       9.305       9.168       9.038       8.959       8.855       8.750       8.642       8.366       8.024    
        7.799       7.511       7.248       7.163       7.095       6.932       6.742       6.586       6.497       6.407    
        6.302       6.222       6.146       6.055       5.936       5.776       5.517       5.184       4.874       4.550    
        4.112       3.514       2.948       2.386       1.783       1.288      0.8010      0.3518      0.1056       0.000    
  16    10.00       9.975       9.938       9.888       9.814       9.715       9.635       9.577       9.514       9.438    
        9.360       9.242       9.086       8.961       8.849       8.727       8.654       8.440       8.038       7.718    
        7.487       7.199       7.096       7.041       6.920       6.716       6.561       6.483       6.446       6.380    
        6.299       6.232       6.171       6.076       5.931       5.734       5.423       5.119       4.872       4.522    
        4.023       3.379       2.728       2.106       1.594       1.104      0.6827      0.3341      0.1127       0.000    
  17    10.00       9.975       9.936       9.872       9.781       9.681       9.614       9.562       9.493       9.409    
        9.283       9.133       8.993       8.857       8.718       8.601       8.425       8.066       7.684       7.457    
        7.227       7.044       6.962       6.844       6.655       6.501       6.456       6.439       6.412       6.351    
        6.286       6.231       6.175       6.088       5.887       5.615       5.346       5.128       4.891       4.450    
        3.783       3.128       2.509       1.899       1.363      0.8936      0.5723      0.2989      0.1228       0.000    
  18    10.00       9.970       9.924       9.848       9.734       9.655       9.602       9.532       9.454       9.339    
        9.187       9.055       8.913       8.732       8.550       8.356       8.098       7.727       7.436       7.233    
        7.042       6.886       6.762       6.594       6.463       6.418       6.404       6.395       6.363       6.315    
        6.271       6.225       6.159       6.016       5.806       5.572       5.341       5.144       4.813       4.226    
        3.545       2.850       2.191       1.692       1.265      0.8378      0.4916      0.2472      0.1184       0.000    
  19    10.00       9.963       9.913       9.803       9.690       9.643       9.586       9.500       9.404       9.281    
        9.143       9.018       8.815       8.541       8.324       8.122       7.805       7.460       7.260       7.102    
        6.903       6.714       6.577       6.446       6.379       6.361       6.353       6.331       6.297       6.274    
        6.246       6.204       6.109       5.966       5.784       5.555       5.341       5.059       4.498       3.891    
        3.344       2.626       2.001       1.606       1.182      0.7558      0.4438      0.2517      0.1289       0.000    
  20    10.00       9.955       9.871       9.758       9.677       9.627       9.565       9.474       9.367       9.255    
        9.114       8.925       8.622       8.348       8.153       7.900       7.581       7.389       7.205       6.984    
        6.764       6.594       6.451       6.357       6.308       6.283       6.253       6.243       6.225       6.220    
        6.206       6.167       6.066       5.926       5.737       5.534       5.268       4.758       4.153       3.670    
        3.078       2.420       1.952       1.570       1.143      0.6704      0.3874      0.2619      0.1349       0.000    
  21    10.00       9.925       9.836       9.742       9.662       9.610       9.543       9.438       9.332       9.227    
        9.039       8.751       8.440       8.231       8.010       7.741       7.501       7.318       7.095       6.860    
        6.648       6.481       6.355       6.256       6.190       6.141       6.124       6.131       6.132       6.141    
        6.147       6.101       5.996       5.857       5.664       5.438       5.024       4.488       4.008       3.422    
        2.862       2.344       1.950       1.563      0.9616      0.5423      0.3920      0.2957      0.1418       0.000    
  22    10.00       9.906       9.799       9.716       9.653       9.590       9.496       9.399       9.306       9.161    
        8.921       8.594       8.344       8.154       7.905       7.627       7.395       7.199       6.992       6.769    
        6.558       6.381       6.214       6.063       5.977       5.958       5.976       5.991       6.026       6.047    
        6.057       6.004       5.913       5.767       5.566       5.340       4.913       4.390       3.763       3.198    
        2.793       2.379       1.905       1.258      0.7490      0.5403      0.4107      0.2734      0.1011       0.000    
  23    10.00       9.879       9.775       9.710       9.643       9.550       9.449       9.376       9.258       9.077    
        8.794       8.513       8.332       8.095       7.770       7.491       7.306       7.146       6.952       6.711    
        6.488       6.282       6.043       5.762       5.556       5.600       5.735       5.824       5.902       5.952    
        5.962       5.919       5.829       5.693       5.501       5.242       4.809       4.163       3.537       3.138    
        2.765       2.244       1.566       1.013      0.7366      0.5507      0.3939      0.2323      9.2432E-02   0.000    
  24    10.00       9.861       9.786       9.708       9.613       9.517       9.439       9.358       9.244       9.002    
        8.736       8.528       8.324       8.007       7.647       7.445       7.289       7.131       6.911       6.684    
        6.486       6.225       5.842       5.309       4.657       4.929       5.332       5.612       5.774       5.853    
        5.879       5.842       5.763       5.613       5.403       5.084       4.540       3.931       3.460       3.044    
        2.588       2.008       1.404      0.9814      0.7376      0.5363      0.3591      0.2516      0.1235       0.000    
  25    10.00       9.877       9.800       9.702       9.604       9.515       9.437       9.362       9.191       8.956    
        8.750       8.539       8.271       7.920       7.654       7.474       7.298       7.108       6.907       6.712    
        6.485       6.234       5.689       4.672       2.855       4.218       4.959       5.399       5.665       5.794    
        5.824       5.792       5.702       5.501       5.220       4.796       4.290       3.813       3.408       2.920    
        2.370       1.817       1.308      0.9723      0.7644      0.5572      0.3784      0.2635      0.1640       0.000    
  26    10.00       9.893       9.819       9.715       9.610       9.529       9.446       9.335       9.166       9.001    
        8.809       8.519       8.190       7.905       7.704       7.530       7.327       7.093       6.898       6.735    
        6.547       6.301       5.833       5.090       4.263       4.625       5.078       5.407       5.652       5.782    
        5.794       5.750       5.617       5.381       5.075       4.672       4.117       3.667       3.290       2.703    
        2.082       1.599       1.295       1.062      0.8243      0.6014      0.4124      0.2862      0.1672       0.000    
  27    10.00       9.915       9.824       9.730       9.639       9.543       9.450       9.337       9.197       9.046    
        8.801       8.473       8.185       7.949       7.782       7.582       7.317       7.075       6.923       6.790    
        6.644       6.419       6.067       5.634       5.197       5.180       5.358       5.569       5.742       5.801    
        5.780       5.720       5.568       5.312       4.957       4.417       3.901       3.535       2.970       2.357    
        1.879       1.569       1.340       1.136      0.9011      0.6564      0.4479      0.3149      0.1987       0.000    
  28    10.00       9.921       9.846       9.761       9.671       9.569       9.466       9.357       9.234       9.057    
        8.768       8.482       8.231       8.001       7.824       7.627       7.412       7.181       6.971       6.835    
        6.719       6.560       6.336       6.027       5.767       5.618       5.660       5.787       5.837       5.832    
        5.780       5.690       5.503       5.186       4.723       4.172       3.735       3.228       2.645       2.214    
        1.875       1.612       1.389       1.175      0.9468      0.7162      0.5081      0.3585      0.2049       0.000    
  29    10.00       9.927       9.853       9.786       9.698       9.606       9.504       9.392       9.257       9.018    
        8.748       8.505       8.265       8.072       7.870       7.662       7.468       7.284       7.086       6.910    
        6.786       6.665       6.519       6.339       6.095       5.977       5.963       5.963       5.949       5.875    
        5.772       5.608       5.390       4.983       4.433       3.961       3.529       3.007       2.544       2.230    
        1.955       1.668       1.414       1.210       1.004      0.7574      0.5368      0.3746      0.2077       0.000    
  30    10.00       9.936       9.875       9.816       9.737       9.646       9.554       9.427       9.244       9.026    
        8.752       8.487       8.290       8.096       7.904       7.718       7.562       7.395       7.203       7.017    
        6.867       6.766       6.644       6.523       6.392       6.276       6.227       6.134       6.048       5.913    
        5.721       5.452       5.161       4.743       4.324       3.889       3.432       2.946       2.598       2.315    
        1.989       1.701       1.480       1.247       1.002      0.7836      0.5721      0.3978      0.2235       0.000    
  31    10.00       9.949       9.898       9.842       9.783       9.709       9.605       9.445       9.235       9.005    
        8.741       8.503       8.324       8.134       7.956       7.784       7.631       7.500       7.308       7.123    
        6.988       6.880       6.784       6.685       6.602       6.494       6.379       6.269       6.114       5.905    
        5.601       5.275       4.987       4.660       4.266       3.810       3.350       2.956       2.712       2.442    
        2.080       1.763       1.512       1.276       1.049      0.8241      0.6062      0.4185      0.2167       0.000    
  32    10.00       9.956       9.919       9.871       9.814       9.743       9.631       9.445       9.254       9.036    
        8.763       8.544       8.375       8.179       7.988       7.847       7.716       7.562       7.407       7.228    
        7.087       6.973       6.879       6.782       6.691       6.608       6.476       6.324       6.112       5.826    
        5.491       5.182       4.896       4.591       4.206       3.799       3.439       3.105       2.826       2.515    
        2.181       1.869       1.605       1.333       1.086      0.8959      0.6682      0.4105      0.1833       0.000    
  33    10.00       9.963       9.934       9.892       9.834       9.758       9.611       9.427       9.273       9.076    
        8.827       8.619       8.418       8.195       8.026       7.911       7.797       7.640       7.471       7.313    
        7.158       7.038       6.918       6.816       6.741       6.657       6.495       6.274       6.048       5.780    
        5.452       5.184       4.890       4.522       4.167       3.809       3.519       3.255       2.937       2.595    
        2.307       2.012       1.722       1.442       1.181      0.9696      0.7146      0.4123      0.1792       0.000    
  34    10.00       9.969       9.947       9.911       9.835       9.722       9.585       9.458       9.298       9.103    
        8.889       8.661       8.433       8.215       8.079       7.985       7.862       7.710       7.518       7.362    
        7.218       7.066       6.939       6.843       6.765       6.645       6.449       6.241       6.008       5.696    
        5.409       5.198       4.906       4.553       4.207       3.881       3.607       3.345       3.018       2.711    
        2.454       2.171       1.854       1.575       1.311       1.068      0.7640      0.4638      0.2432       0.000    
  35    10.00       9.974       9.947       9.895       9.801       9.689       9.591       9.481       9.350       9.138    
        8.902       8.670       8.439       8.262       8.144       8.045       7.911       7.748       7.559       7.373    
        7.209       7.064       6.935       6.844       6.758       6.636       6.428       6.184       5.911       5.588    
        5.376       5.151       4.862       4.605       4.318       3.978       3.679       3.460       3.154       2.828    
        2.580       2.290       1.973       1.698       1.424       1.158      0.8756      0.5803      0.2870       0.000    
  36    10.00       9.968       9.923       9.867       9.779       9.675       9.593       9.496       9.354       9.147    
        8.887       8.639       8.476       8.345       8.228       8.098       7.939       7.771       7.563       7.307    
        7.128       7.017       6.908       6.831       6.746       6.591       6.356       6.090       5.756       5.474    
        5.297       5.116       4.871       4.627       4.389       4.086       3.791       3.560       3.287       2.931    
        2.660       2.337       2.021       1.811       1.545       1.249      0.9658      0.6572      0.3215       0.000    
  37    10.00       9.950       9.902       9.845       9.759       9.668       9.574       9.481       9.349       9.105    
        8.833       8.645       8.550       8.424       8.276       8.145       7.942       7.729       7.455       7.190    
        7.081       6.987       6.881       6.795       6.693       6.501       6.264       5.911       5.611       5.433    
        5.285       5.095       4.856       4.666       4.425       4.139       3.908       3.688       3.382       2.990    
        2.635       2.332       2.112       1.895       1.628       1.347       1.064      0.7248      0.3979       0.000    
  38    10.00       9.942       9.881       9.821       9.745       9.658       9.557       9.456       9.302       9.073    
        8.869       8.722       8.601       8.483       8.321       8.099       7.865       7.611       7.303       7.133    
        7.046       6.919       6.805       6.736       6.614       6.404       6.054       5.729       5.577       5.445    
        5.290       5.091       4.877       4.689       4.454       4.196       4.008       3.783       3.392       2.962    
        2.654       2.401       2.183       1.959       1.723       1.437       1.155      0.8382      0.4142       0.000    
  39    10.00       9.926       9.865       9.811       9.737       9.637       9.529       9.424       9.279       9.092    
        8.932       8.819       8.682       8.515       8.268       7.984       7.721       7.420       7.205       7.100    
        6.961       6.813       6.727       6.659       6.539       6.256       5.912       5.724       5.589       5.453    
        5.278       5.092       4.887       4.700       4.522       4.311       4.064       3.792       3.407       3.007    
        2.681       2.420       2.249       2.061       1.795       1.513       1.226      0.8725      0.4088       0.000    
  40    10.00       9.917       9.859       9.803       9.726       9.623       9.517       9.413       9.284       9.127    
        8.995       8.894       8.718       8.449       8.134       7.849       7.570       7.315       7.163       7.024    
        6.862       6.736       6.666       6.576       6.416       6.163       5.938       5.754       5.603       5.462    
        5.292       5.093       4.901       4.745       4.590       4.377       4.091       3.807       3.417       2.987    
        2.683       2.476       2.287       2.127       1.847       1.538       1.276      0.8750      0.4073       0.000    
  41    10.00       9.924       9.856       9.789       9.705       9.624       9.535       9.438       9.310       9.166    
        9.040       8.912       8.677       8.353       8.029       7.764       7.491       7.251       7.099       6.947    
        6.784       6.675       6.595       6.489       6.324       6.139       5.989       5.812       5.625       5.460    
        5.297       5.119       4.936       4.801       4.637       4.424       4.138       3.746       3.298       2.968    
        2.747       2.547       2.351       2.128       1.837       1.541       1.317      0.9322      0.4227       0.000    
  42    10.00       9.924       9.846       9.786       9.725       9.649       9.555       9.444       9.334       9.223    
        9.056       8.832       8.558       8.249       7.947       7.706       7.439       7.207       7.042       6.870    
        6.719       6.622       6.532       6.436       6.291       6.164       6.038       5.837       5.628       5.480    
        5.348       5.153       4.958       4.828       4.675       4.449       4.098       3.635       3.226       2.980    
        2.813       2.635       2.386       2.088       1.809       1.577       1.345      0.9832      0.4851       0.000    
  43    10.00       9.917       9.851       9.800       9.751       9.678       9.584       9.478       9.354       9.177    
        8.958       8.727       8.470       8.148       7.878       7.655       7.415       7.180       6.972       6.811    
        6.677       6.580       6.505       6.427       6.305       6.175       6.047       5.839       5.656       5.549    
        5.388       5.179       4.991       4.856       4.679       4.386       3.980       3.542       3.244       3.055    
        2.878       2.672       2.367       2.061       1.815       1.591       1.391      0.9971      0.4557       0.000    
  44    10.00       9.916       9.859       9.813       9.754       9.698       9.620       9.477       9.291       9.084    
        8.900       8.666       8.356       8.086       7.872       7.615       7.352       7.102       6.896       6.756    
        6.658       6.576       6.502       6.421       6.316       6.183       6.011       5.839       5.717       5.589    
        5.445       5.262       5.047       4.842       4.626       4.298       3.873       3.513       3.282       3.100    
        2.921       2.677       2.382       2.118       1.854       1.614       1.368      0.9002      0.4140       0.000    
  45    10.00       9.925       9.872       9.811       9.754       9.705       9.577       9.404       9.215       9.038    
        8.886       8.572       8.250       8.055       7.822       7.536       7.250       7.020       6.854       6.744    
        6.669       6.593       6.511       6.417       6.301       6.170       6.025       5.894       5.786       5.653    
        5.486       5.297       5.076       4.817       4.559       4.206       3.807       3.523       3.348       3.160    
        2.922       2.643       2.390       2.149       1.915       1.676       1.278      0.8000      0.4026       0.000    
  46    10.00       9.940       9.883       9.812       9.745       9.649       9.508       9.377       9.219       9.029    
        8.775       8.476       8.219       7.970       7.722       7.445       7.180       7.010       6.874       6.769    
        6.694       6.619       6.516       6.398       6.286       6.176       6.063       5.942       5.834       5.716    
        5.566       5.366       5.115       4.808       4.439       4.073       3.778       3.578       3.395       3.199    
        2.917       2.620       2.368       2.177       1.954       1.643       1.190      0.7641      0.3767       0.000    
  47    10.00       9.951       9.896       9.826       9.712       9.585       9.464       9.362       9.216       8.965    
        8.661       8.387       8.162       7.955       7.692       7.391       7.156       6.995       6.886       6.798    
        6.717       6.629       6.521       6.397       6.289       6.202       6.108       5.990       5.865       5.749    
        5.619       5.451       5.117       4.688       4.328       4.065       3.818       3.646       3.483       3.213    
        2.869       2.555       2.326       2.195       1.948       1.567       1.125      0.7370      0.3723       0.000    
  48    10.00       9.956       9.900       9.794       9.677       9.567       9.446       9.342       9.194       8.910    
        8.579       8.350       8.166       7.911       7.605       7.334       7.157       6.995       6.887       6.818    
        6.736       6.630       6.513       6.400       6.311       6.242       6.159       6.027       5.883       5.758    
        5.621       5.420       5.072       4.716       4.395       4.104       3.884       3.707       3.500       3.156    
        2.787       2.545       2.363       2.130       1.806       1.468       1.089      0.7423      0.3930       0.000    
  49    10.00       9.953       9.869       9.767       9.678       9.560       9.443       9.333       9.146       8.845    
        8.549       8.330       8.100       7.843       7.612       7.359       7.114       6.963       6.897       6.832    
        6.754       6.633       6.497       6.399       6.331       6.280       6.184       6.032       5.881       5.768    
        5.619       5.354       5.048       4.796       4.526       4.206       3.921       3.703       3.459       3.090    
        2.793       2.580       2.330       1.994       1.707       1.402       1.071      0.7545      0.3842       0.000    
  50    10.00       9.941       9.848       9.754       9.683       9.573       9.443       9.303       9.101       8.864    
        8.564       8.270       8.030       7.825       7.640       7.356       7.077       6.963       6.905       6.842    
        6.767       6.630       6.486       6.397       6.343       6.296       6.188       6.025       5.880       5.765    
        5.603       5.325       5.089       4.872       4.581       4.262       3.974       3.684       3.333       3.007    
        2.849       2.626       2.260       1.923       1.682       1.392       1.104      0.7369      0.3027       0.000    

 HEAD WILL BE SAVED ON UNIT   51 AT END OF TIME STEP  31, STRESS PERIOD    2

 DRAWDOWN WILL BE SAVED ON UNIT   52 AT END OF TIME STEP  31, STRESS PERIOD    2
1
  VOLUMETRIC BUDGET FOR ENTIRE MODEL AT END OF TIME STEP 31 IN STRESS PERIOD   2
  ------------------------------------------------------------------------------

     CUMULATIVE VOLUMES      L**3       RATES FOR THIS TIME STEP      L**3/T
     ------------------                 ------------------------

           IN:                                      IN:
           ---                                      ---
             STORAGE =       15420.3320               STORAGE =         489.0266
       CONSTANT HEAD =       17355.4805         CONSTANT HEAD =         550.7221
               WELLS =           0.0000                 WELLS =           0.0000

            TOTAL IN =       32775.8125              TOTAL IN =        1039.7488

          OUT:                                     OUT:
          ----                                     ----
             STORAGE =       9.3745E-03               STORAGE =           0.0000
       CONSTANT HEAD =       17275.8008         CONSTANT HEAD =         539.7490
               WELLS =       15500.0000                 WELLS =         500.0000

           TOTAL OUT =       32775.8086             TOTAL OUT =        1039.7490

            IN - OUT =       3.9063E-03              IN - OUT =      -2.4414E-04

 PERCENT DISCREPANCY =           0.00     PERCENT DISCREPANCY =           0.00






          TIME SUMMARY AT END OF TIME STEP  31 IN STRESS PERIOD    2
                    SECONDS     MINUTES      HOURS       DAYS        YEARS
                    -----------------------------------------------------------
   TIME STEP LENGTH  86400.      1440.0      24.000      1.0000     2.73785E-03
 STRESS PERIOD TIME 2.67840E+06  44640.      744.00      31.000     8.48734E-02
         TOTAL TIME 2.76480E+06  46080.      768.00      32.000     8.76112E-02
1
 
 SOLVING FOR HEAD 

 OUTPUT CONTROL FOR STRESS PERIOD    2   TIME STEP  32
    SAVE HEAD FOR ALL LAYERS
    SAVE DRAWDOWN FOR ALL LAYERS
    SAVE BUDGET
    PRINT HEAD FOR ALL LAYERS
    PRINT BUDGET
 UBDSV1 SAVING "         STORAGE" ON UNIT  53 AT TIME STEP 32, STRESS PERIOD   2
 UBDSV2 SAVING "   CONSTANT HEAD" ON UNIT  53 AT TIME STEP 32, STRESS PERIOD   2
 UBDSV1 SAVING "FLOW RIGHT FACE " ON UNIT  53 AT TIME STEP 32, STRESS PERIOD   2
 UBDSV1 SAVING "FLOW FRONT FACE " ON UNIT  53 AT TIME STEP 32, STRESS PERIOD   2
1
              HEAD IN LAYER   1 AT END OF TIME STEP  32 IN STRESS PERIOD    2
  ---------------------------------------------------------------------------

            1           2           3           4           5           6           7           8           9          10
           11          12          13          14          15          16          17          18          19          20
           21          22          23          24          25          26          27          28          29          30
           31          32          33          34          35          36          37          38          39          40
           41          42          43          44          45          46          47          48          49          50
 ........................................................................................................................
   1    10.00       9.959       9.903       9.847       9.800       9.743       9.687       9.629       9.550       9.486    
        9.448       9.409       9.367       9.324       9.256       9.182       9.100       9.036       9.007       8.975    
        8.936       8.901       8.865       8.820       8.757       8.646       8.513       8.383       8.233       8.084    
        7.872       7.535       7.139       6.722       6.255       5.823       5.458       5.118       4.653       4.149    
        3.720       3.296       2.710       2.155       1.766       1.376       1.049      0.8381      0.5558       0.000    
   2    10.00       9.958       9.908       9.852       9.802       9.750       9.688       9.611       9.535       9.486    
        9.451       9.417       9.384       9.332       9.253       9.177       9.102       9.039       9.008       8.972    
        8.931       8.905       8.876       8.828       8.756       8.651       8.517       8.381       8.240       8.092    
        7.862       7.516       7.099       6.628       6.156       5.740       5.413       5.080       4.609       4.137    
        3.704       3.193       2.664       2.224       1.837       1.474       1.100      0.7959      0.4249       0.000    
   3    10.00       9.954       9.906       9.855       9.805       9.744       9.667       9.594       9.546       9.501    
        9.461       9.431       9.399       9.349       9.271       9.175       9.097       9.045       9.006       8.969    
        8.936       8.907       8.879       8.819       8.742       8.636       8.509       8.407       8.258       8.081    
        7.786       7.384       6.943       6.487       6.052       5.663       5.371       5.028       4.520       4.060    
        3.699       3.233       2.744       2.321       1.919       1.552       1.111      0.6830      0.3004       0.000    
   4    10.00       9.958       9.909       9.853       9.791       9.721       9.647       9.593       9.552       9.510    
        9.475       9.450       9.414       9.361       9.289       9.184       9.097       9.049       9.007       8.973    
        8.935       8.901       8.865       8.802       8.723       8.621       8.498       8.384       8.269       8.048    
        7.669       7.180       6.709       6.361       6.034       5.656       5.280       4.846       4.417       4.080    
        3.758       3.344       2.854       2.436       2.013       1.569       1.060      0.6066      0.2825       0.000    
   5    10.00       9.955       9.903       9.839       9.775       9.710       9.646       9.600       9.557       9.521    
        9.491       9.464       9.422       9.360       9.277       9.181       9.107       9.054       9.011       8.964    
        8.920       8.886       8.841       8.776       8.702       8.586       8.464       8.366       8.250       7.971    
        7.477       6.944       6.556       6.290       5.993       5.610       5.181       4.753       4.447       4.160    
        3.868       3.439       2.927       2.561       2.131       1.549      0.9642      0.5599      0.2816       0.000    
   6    10.00       9.944       9.883       9.833       9.772       9.705       9.651       9.609       9.566       9.532    
        9.504       9.471       9.418       9.345       9.274       9.195       9.115       9.050       8.996       8.942    
        8.903       8.866       8.825       8.756       8.648       8.537       8.446       8.340       8.148       7.750    
        7.205       6.725       6.428       6.227       5.986       5.566       5.100       4.756       4.530       4.278    
        3.992       3.603       3.094       2.638       2.106       1.481      0.8645      0.4923      0.2750       0.000    
   7    10.00       9.929       9.871       9.822       9.764       9.716       9.664       9.621       9.584       9.548    
        9.512       9.465       9.400       9.330       9.266       9.201       9.112       9.026       8.967       8.923    
        8.885       8.846       8.802       8.713       8.602       8.512       8.413       8.245       7.928       7.426    
        6.909       6.534       6.349       6.191       5.887       5.474       5.165       4.862       4.614       4.437    
        4.147       3.743       3.197       2.606       1.950       1.234      0.7245      0.4999      0.2531       0.000    
   8    10.00       9.924       9.871       9.819       9.767       9.724       9.680       9.638       9.602       9.568    
        9.516       9.447       9.380       9.319       9.259       9.179       9.074       8.993       8.948       8.906    
        8.861       8.827       8.758       8.663       8.565       8.460       8.275       8.012       7.583       7.150    
        6.762       6.462       6.319       6.127       5.787       5.467       5.209       4.986       4.784       4.574    
        4.272       3.773       3.142       2.468       1.721       1.114      0.7667      0.4903      0.2258       0.000    
   9    10.00       9.928       9.868       9.817       9.779       9.743       9.700       9.659       9.619       9.579    
        9.514       9.431       9.361       9.299       9.227       9.138       9.044       8.972       8.925       8.881    
        8.840       8.787       8.692       8.605       8.505       8.361       8.096       7.703       7.280       6.969    
        6.662       6.438       6.277       6.023       5.708       5.459       5.274       5.101       4.927       4.698    
        4.322       3.801       3.129       2.375       1.688       1.153      0.7821      0.4862      0.2411       0.000    
  10    10.00       9.927       9.866       9.824       9.791       9.756       9.718       9.683       9.636       9.574    
        9.495       9.412       9.344       9.276       9.201       9.099       9.004       8.946       8.904       8.859    
        8.817       8.731       8.629       8.534       8.399       8.187       7.799       7.372       7.034       6.798    
        6.612       6.426       6.214       5.953       5.682       5.489       5.347       5.203       5.008       4.741    
        4.337       3.765       3.046       2.373       1.828       1.321      0.8373      0.5162      0.2720       0.000    
  11    10.00       9.917       9.870       9.835       9.802       9.771       9.738       9.691       9.625       9.556    
        9.477       9.396       9.331       9.242       9.140       9.050       8.982       8.927       8.885       8.836    
        8.762       8.652       8.509       8.369       8.139       7.826       7.481       7.192       6.915       6.740    
        6.583       6.344       6.103       5.909       5.724       5.578       5.434       5.248       5.018       4.705    
        4.325       3.819       3.088       2.473       1.989       1.501      0.9641      0.5110      0.2051       0.000    
  12    10.00       9.924       9.878       9.841       9.813       9.781       9.745       9.682       9.604       9.534    
        9.459       9.379       9.293       9.186       9.102       9.025       8.954       8.907       8.855       8.780    
        8.641       8.455       8.257       8.050       7.766       7.524       7.335       7.042       6.810       6.666    
        6.497       6.278       6.081       5.914       5.790       5.657       5.485       5.274       4.998       4.669    
        4.293       3.797       3.126       2.575       2.135       1.608       1.014      0.4830      0.1606       0.000    
  13    10.00       9.941       9.898       9.858       9.823       9.787       9.734       9.656       9.576       9.507    
        9.429       9.350       9.259       9.150       9.053       8.977       8.926       8.868       8.795       8.628    
        8.376       8.151       7.934       7.675       7.451       7.338       7.109       6.843       6.718       6.595    
        6.411       6.218       6.073       5.952       5.847       5.725       5.526       5.262       4.989       4.648    
        4.272       3.766       3.073       2.557       2.149       1.573      0.9437      0.4367      0.1262       0.000    
  14    10.00       9.957       9.918       9.876       9.834       9.779       9.703       9.622       9.551       9.473    
        9.396       9.322       9.216       9.095       9.008       8.946       8.866       8.780       8.613       8.321    
        8.051       7.847       7.562       7.347       7.241       7.114       6.879       6.721       6.601       6.482    
        6.324       6.196       6.104       5.999       5.889       5.760       5.538       5.246       4.953       4.605    
        4.201       3.590       2.937       2.520       2.021       1.467      0.9311      0.3990      0.1027       0.000    
  15    10.00       9.966       9.927       9.885       9.837       9.755       9.662       9.591       9.520       9.445    
        9.387       9.302       9.164       9.032       8.953       8.849       8.743       8.634       8.356       8.011    
        7.785       7.495       7.230       7.145       7.078       6.914       6.724       6.569       6.479       6.390    
        6.287       6.208       6.132       6.043       5.925       5.766       5.509       5.178       4.869       4.546    
        4.109       3.513       2.947       2.386       1.782       1.287      0.8009      0.3518      0.1056       0.000    
  16    10.00       9.975       9.937       9.888       9.814       9.714       9.633       9.576       9.512       9.436    
        9.357       9.239       9.081       8.955       8.842       8.719       8.645       8.430       8.024       7.702    
        7.470       7.180       7.077       7.022       6.901       6.696       6.541       6.464       6.428       6.363    
        6.283       6.217       6.157       6.063       5.919       5.724       5.415       5.113       4.867       4.518    
        4.020       3.377       2.728       2.106       1.594       1.104      0.6826      0.3341      0.1126       0.000    
  17    10.00       9.975       9.936       9.872       9.780       9.680       9.613       9.561       9.491       9.406    
        9.279       9.128       8.986       8.849       8.710       8.591       8.414       8.052       7.667       7.438    
        7.207       7.024       6.941       6.824       6.634       6.480       6.435       6.419       6.393       6.333    
        6.269       6.216       6.160       6.074       5.875       5.605       5.338       5.121       4.886       4.446    
        3.781       3.127       2.509       1.899       1.363      0.8936      0.5723      0.2988      0.1228       0.000    
  18    10.00       9.970       9.924       9.847       9.734       9.654       9.601       9.530       9.451       9.335    
        9.182       9.049       8.905       8.723       8.540       8.344       8.084       7.710       7.417       7.213    
        7.022       6.865       6.741       6.573       6.441       6.397       6.383       6.375       6.343       6.296    
        6.253       6.208       6.143       6.002       5.794       5.562       5.332       5.137       4.808       4.222    
        3.543       2.849       2.190       1.691       1.264      0.8377      0.4915      0.2472      0.1184       0.000    
  19    10.00       9.963       9.912       9.802       9.689       9.642       9.584       9.498       9.401       9.277    
        9.137       9.012       8.806       8.530       8.311       8.107       7.788       7.441       7.239       7.081    
        6.882       6.692       6.555       6.424       6.357       6.339       6.331       6.310       6.277       6.254    
        6.227       6.186       6.093       5.952       5.772       5.544       5.333       5.053       4.494       3.888    
        3.342       2.626       2.001       1.605       1.182      0.7557      0.4437      0.2516      0.1289       0.000    
  20    10.00       9.955       9.871       9.758       9.675       9.625       9.563       9.471       9.364       9.251    
        9.108       8.918       8.612       8.335       8.138       7.883       7.562       7.369       7.184       6.962    
        6.742       6.572       6.428       6.334       6.286       6.260       6.231       6.221       6.203       6.199    
        6.186       6.148       6.049       5.911       5.725       5.523       5.259       4.752       4.149       3.668    
        3.077       2.419       1.952       1.570       1.143      0.6704      0.3874      0.2619      0.1349       0.000    
  21    10.00       9.925       9.835       9.741       9.661       9.608       9.541       9.435       9.328       9.222    
        9.033       8.742       8.428       8.216       7.994       7.723       7.482       7.298       7.073       6.838    
        6.625       6.458       6.332       6.233       6.167       6.118       6.101       6.108       6.109       6.119    
        6.126       6.081       5.978       5.842       5.651       5.428       5.017       4.483       4.005       3.420    
        2.861       2.344       1.950       1.563      0.9616      0.5423      0.3920      0.2957      0.1418       0.000    
  22    10.00       9.906       9.798       9.715       9.651       9.588       9.494       9.396       9.302       9.156    
        8.914       8.583       8.331       8.139       7.888       7.609       7.375       7.178       6.971       6.747    
        6.535       6.358       6.190       6.039       5.954       5.935       5.952       5.968       6.003       6.024    
        6.035       5.984       5.895       5.751       5.553       5.330       4.906       4.386       3.761       3.197    
        2.792       2.379       1.905       1.258      0.7490      0.5403      0.4107      0.2734      0.1011       0.000    
  23    10.00       9.879       9.774       9.709       9.642       9.548       9.446       9.373       9.254       9.071    
        8.785       8.501       8.319       8.080       7.752       7.471       7.285       7.124       6.930       6.689    
        6.465       6.258       6.019       5.737       5.532       5.576       5.711       5.800       5.878       5.928    
        5.940       5.898       5.810       5.677       5.487       5.232       4.802       4.160       3.535       3.137    
        2.764       2.243       1.566       1.013      0.7366      0.5507      0.3938      0.2323      9.2428E-02   0.000    
  24    10.00       9.860       9.785       9.706       9.612       9.514       9.436       9.354       9.239       8.996    
        8.727       8.516       8.311       7.991       7.628       7.426       7.269       7.110       6.889       6.662    
        6.463       6.201       5.817       5.284       4.632       4.904       5.307       5.587       5.749       5.830    
        5.857       5.821       5.745       5.597       5.390       5.074       4.534       3.928       3.458       3.043    
        2.587       2.008       1.404      0.9813      0.7376      0.5363      0.3591      0.2516      0.1235       0.000    
  25    10.00       9.876       9.799       9.701       9.602       9.512       9.434       9.359       9.186       8.949    
        8.741       8.528       8.258       7.904       7.635       7.455       7.278       7.087       6.885       6.689    
        6.461       6.211       5.664       4.647       2.828       4.192       4.933       5.373       5.640       5.770    
        5.801       5.771       5.684       5.486       5.208       4.788       4.285       3.810       3.406       2.919    
        2.369       1.817       1.308      0.9723      0.7644      0.5571      0.3784      0.2634      0.1640       0.000    
  26    10.00       9.893       9.819       9.714       9.608       9.527       9.443       9.331       9.160       8.994    
        8.800       8.508       8.176       7.889       7.687       7.511       7.307       7.072       6.876       6.713    
        6.524       6.278       5.808       5.064       4.237       4.598       5.051       5.380       5.627       5.758    
        5.772       5.729       5.599       5.367       5.064       4.664       4.112       3.664       3.288       2.702    
        2.082       1.599       1.295       1.062      0.8242      0.6014      0.4124      0.2862      0.1672       0.000    
  27    10.00       9.915       9.823       9.729       9.638       9.541       9.447       9.333       9.192       9.040    
        8.793       8.462       8.171       7.933       7.765       7.564       7.297       7.054       6.902       6.768    
        6.622       6.396       6.043       5.609       5.172       5.153       5.331       5.543       5.717       5.778    
        5.759       5.700       5.551       5.299       4.947       4.411       3.897       3.532       2.968       2.357    
        1.878       1.569       1.340       1.136      0.9011      0.6564      0.4479      0.3149      0.1987       0.000    
  28    10.00       9.921       9.845       9.760       9.670       9.567       9.463       9.353       9.229       9.051    
        8.760       8.471       8.217       7.986       7.807       7.609       7.393       7.161       6.950       6.813    
        6.697       6.537       6.312       6.003       5.742       5.593       5.634       5.762       5.812       5.810    
        5.759       5.671       5.488       5.174       4.715       4.167       3.732       3.226       2.644       2.214    
        1.874       1.612       1.389       1.175      0.9467      0.7162      0.5081      0.3585      0.2049       0.000    
  29    10.00       9.926       9.852       9.785       9.696       9.604       9.502       9.389       9.253       9.012    
        8.740       8.494       8.253       8.058       7.855       7.645       7.450       7.265       7.066       6.889    
        6.765       6.643       6.496       6.315       6.070       5.952       5.938       5.939       5.926       5.854    
        5.753       5.591       5.377       4.974       4.428       3.958       3.527       3.006       2.544       2.230    
        1.955       1.668       1.414       1.210       1.004      0.7573      0.5368      0.3746      0.2077       0.000    
  30    10.00       9.936       9.874       9.815       9.736       9.644       9.552       9.423       9.239       9.019    
        8.744       8.476       8.279       8.083       7.889       7.702       7.545       7.377       7.184       6.997    
        6.847       6.745       6.622       6.501       6.369       6.253       6.205       6.112       6.028       5.895    
        5.704       5.440       5.151       4.737       4.320       3.887       3.430       2.945       2.598       2.314    
        1.988       1.700       1.480       1.247       1.002      0.7835      0.5721      0.3978      0.2235       0.000    
  31    10.00       9.949       9.898       9.842       9.782       9.707       9.603       9.442       9.231       8.999    
        8.733       8.493       8.313       8.121       7.942       7.769       7.615       7.483       7.290       7.104    
        6.968       6.860       6.763       6.664       6.582       6.473       6.359       6.249       6.096       5.889    
        5.589       5.266       4.980       4.656       4.263       3.808       3.349       2.955       2.712       2.442    
        2.079       1.763       1.512       1.276       1.049      0.8241      0.6061      0.4185      0.2167       0.000    
  32    10.00       9.955       9.919       9.870       9.813       9.742       9.629       9.443       9.250       9.030    
        8.756       8.535       8.365       8.167       7.975       7.833       7.701       7.546       7.390       7.210    
        7.068       6.954       6.860       6.763       6.673       6.589       6.458       6.307       6.097       5.814    
        5.482       5.176       4.891       4.587       4.204       3.797       3.438       3.105       2.825       2.515    
        2.181       1.869       1.604       1.333       1.086      0.8959      0.6682      0.4105      0.1833       0.000    
  33    10.00       9.962       9.933       9.891       9.834       9.757       9.609       9.424       9.269       9.071    
        8.820       8.610       8.408       8.184       8.014       7.898       7.783       7.625       7.456       7.296    
        7.141       7.021       6.901       6.800       6.724       6.641       6.480       6.261       6.037       5.771    
        5.446       5.179       4.886       4.519       4.166       3.808       3.518       3.254       2.936       2.595    
        2.306       2.012       1.722       1.442       1.181      0.9696      0.7146      0.4123      0.1792       0.000    
  34    10.00       9.969       9.947       9.911       9.834       9.721       9.583       9.455       9.294       9.098    
        8.883       8.653       8.424       8.205       8.068       7.974       7.850       7.697       7.504       7.348    
        7.203       7.051       6.924       6.828       6.750       6.630       6.437       6.230       5.999       5.690    
        5.404       5.194       4.903       4.551       4.206       3.880       3.607       3.345       3.018       2.710    
        2.454       2.170       1.854       1.575       1.311       1.068      0.7640      0.4638      0.2432       0.000    
  35    10.00       9.974       9.946       9.895       9.800       9.688       9.590       9.479       9.348       9.134    
        8.897       8.664       8.431       8.253       8.134       8.034       7.900       7.736       7.546       7.360    
        7.197       7.052       6.922       6.832       6.746       6.624       6.418       6.176       5.904       5.584    
        5.372       5.148       4.860       4.604       4.317       3.977       3.678       3.460       3.154       2.827    
        2.580       2.290       1.973       1.698       1.424       1.158      0.8756      0.5802      0.2870       0.000    
  36    10.00       9.968       9.923       9.866       9.778       9.674       9.591       9.495       9.352       9.144    
        8.883       8.633       8.469       8.337       8.219       8.089       7.930       7.760       7.552       7.296    
        7.118       7.007       6.898       6.821       6.736       6.582       6.349       6.084       5.752       5.471    
        5.295       5.114       4.870       4.626       4.389       4.086       3.790       3.560       3.287       2.931    
        2.660       2.337       2.021       1.811       1.545       1.249      0.9658      0.6572      0.3215       0.000    
  37    10.00       9.950       9.902       9.845       9.758       9.667       9.573       9.479       9.347       9.103    
        8.829       8.640       8.545       8.417       8.269       8.137       7.934       7.721       7.447       7.182    
        7.073       6.979       6.873       6.787       6.685       6.494       6.258       5.907       5.608       5.431    
        5.283       5.094       4.855       4.665       4.424       4.139       3.908       3.687       3.381       2.990    
        2.635       2.332       2.112       1.895       1.628       1.347       1.064      0.7248      0.3979       0.000    
  38    10.00       9.942       9.881       9.821       9.744       9.657       9.556       9.454       9.301       9.070    
        8.866       8.718       8.596       8.478       8.314       8.092       7.859       7.605       7.297       7.126    
        7.039       6.913       6.799       6.729       6.608       6.399       6.051       5.727       5.575       5.443    
        5.289       5.090       4.877       4.689       4.454       4.196       4.007       3.783       3.392       2.962    
        2.654       2.401       2.183       1.959       1.723       1.437       1.155      0.8382      0.4142       0.000    
  39    10.00       9.926       9.865       9.810       9.736       9.636       9.528       9.423       9.278       9.089    
        8.929       8.815       8.677       8.510       8.263       7.979       7.716       7.415       7.200       7.095    
        6.956       6.808       6.723       6.654       6.535       6.253       5.910       5.723       5.588       5.452    
        5.277       5.091       4.887       4.699       4.522       4.311       4.064       3.792       3.407       3.007    
        2.681       2.420       2.249       2.061       1.795       1.513       1.226      0.8725      0.4088       0.000    
  40    10.00       9.917       9.859       9.803       9.726       9.622       9.517       9.412       9.283       9.125    
        8.993       8.891       8.714       8.446       8.131       7.846       7.566       7.312       7.159       7.021    
        6.859       6.732       6.663       6.573       6.413       6.161       5.936       5.752       5.602       5.461    
        5.291       5.092       4.900       4.745       4.590       4.377       4.091       3.807       3.417       2.987    
        2.683       2.476       2.287       2.126       1.847       1.538       1.276      0.8749      0.4073       0.000    
  41    10.00       9.924       9.856       9.788       9.705       9.623       9.535       9.437       9.309       9.165    
        9.038       8.910       8.675       8.351       8.027       7.761       7.489       7.248       7.096       6.944    
        6.782       6.673       6.592       6.486       6.323       6.137       5.988       5.811       5.624       5.459    
        5.297       5.118       4.935       4.801       4.636       4.424       4.138       3.746       3.298       2.968    
        2.747       2.547       2.351       2.128       1.837       1.541       1.317      0.9322      0.4227       0.000    
  42    10.00       9.924       9.846       9.786       9.725       9.649       9.554       9.443       9.333       9.221    
        9.055       8.831       8.556       8.247       7.945       7.704       7.437       7.204       7.040       6.868    
        6.717       6.620       6.530       6.435       6.290       6.163       6.037       5.836       5.627       5.479    
        5.347       5.153       4.958       4.827       4.675       4.449       4.098       3.635       3.226       2.980    
        2.813       2.635       2.386       2.088       1.809       1.577       1.345      0.9832      0.4851       0.000    
  43    10.00       9.917       9.851       9.800       9.751       9.677       9.584       9.477       9.353       9.176    
        8.957       8.725       8.469       8.147       7.877       7.654       7.414       7.179       6.971       6.810    
        6.675       6.578       6.503       6.426       6.304       6.174       6.046       5.838       5.656       5.548    
        5.388       5.178       4.990       4.856       4.678       4.385       3.980       3.542       3.244       3.055    
        2.878       2.672       2.367       2.061       1.815       1.591       1.391      0.9971      0.4556       0.000    
  44    10.00       9.916       9.859       9.813       9.753       9.698       9.620       9.476       9.290       9.083    
        8.899       8.665       8.355       8.085       7.871       7.614       7.351       7.101       6.895       6.755    
        6.657       6.575       6.500       6.420       6.315       6.182       6.011       5.839       5.717       5.588    
        5.444       5.262       5.047       4.842       4.626       4.298       3.873       3.512       3.282       3.100    
        2.921       2.677       2.382       2.118       1.854       1.614       1.368      0.9002      0.4140       0.000    
  45    10.00       9.925       9.872       9.811       9.754       9.705       9.576       9.404       9.215       9.037    
        8.885       8.572       8.249       8.054       7.822       7.536       7.249       7.019       6.853       6.743    
        6.668       6.592       6.510       6.416       6.300       6.169       6.025       5.893       5.786       5.652    
        5.486       5.297       5.075       4.817       4.558       4.205       3.807       3.523       3.348       3.160    
        2.922       2.643       2.390       2.149       1.915       1.676       1.278      0.8000      0.4026       0.000    
  46    10.00       9.940       9.883       9.811       9.745       9.649       9.508       9.377       9.218       9.028    
        8.775       8.476       8.218       7.970       7.722       7.445       7.179       7.009       6.873       6.768    
        6.693       6.618       6.515       6.397       6.285       6.176       6.062       5.941       5.833       5.715    
        5.565       5.366       5.115       4.808       4.439       4.073       3.778       3.578       3.395       3.199    
        2.917       2.620       2.368       2.177       1.954       1.643       1.190      0.7641      0.3767       0.000    
  47    10.00       9.951       9.896       9.826       9.711       9.584       9.464       9.361       9.215       8.964    
        8.660       8.386       8.162       7.954       7.691       7.390       7.156       6.995       6.885       6.798    
        6.717       6.628       6.520       6.397       6.288       6.202       6.108       5.989       5.865       5.749    
        5.618       5.451       5.117       4.688       4.328       4.065       3.818       3.646       3.483       3.213    
        2.869       2.555       2.326       2.195       1.948       1.567       1.125      0.7370      0.3723       0.000    
  48    10.00       9.956       9.900       9.794       9.677       9.567       9.446       9.342       9.194       8.910    
        8.579       8.349       8.165       7.911       7.604       7.333       7.157       6.995       6.886       6.817    
        6.735       6.629       6.512       6.399       6.310       6.242       6.158       6.027       5.882       5.758    
        5.621       5.419       5.072       4.715       4.395       4.104       3.884       3.707       3.500       3.156    
        2.786       2.545       2.363       2.130       1.806       1.468       1.089      0.7423      0.3930       0.000    
  49    10.00       9.953       9.869       9.766       9.678       9.560       9.442       9.332       9.146       8.845    
        8.549       8.330       8.100       7.842       7.611       7.358       7.113       6.962       6.896       6.832    
        6.753       6.632       6.496       6.398       6.330       6.280       6.183       6.032       5.880       5.767    
        5.618       5.354       5.047       4.795       4.526       4.206       3.921       3.703       3.459       3.090    
        2.793       2.580       2.330       1.994       1.707       1.402       1.071      0.7545      0.3842       0.000    
  50    10.00       9.941       9.848       9.754       9.683       9.573       9.443       9.302       9.101       8.863    
        8.563       8.269       8.030       7.825       7.639       7.356       7.077       6.962       6.904       6.842    
        6.767       6.630       6.485       6.396       6.342       6.295       6.188       6.024       5.880       5.764    
        5.602       5.324       5.088       4.872       4.581       4.262       3.974       3.684       3.333       3.007    
        2.849       2.626       2.260       1.923       1.682       1.391       1.104      0.7369      0.3027       0.000    

 HEAD WILL BE SAVED ON UNIT   51 AT END OF TIME STEP  32, STRESS PERIOD    2

 DRAWDOWN WILL BE SAVED ON UNIT   52 AT END OF TIME STEP  32, STRESS PERIOD    2
1
  VOLUMETRIC BUDGET FOR ENTIRE MODEL AT END OF TIME STEP 32 IN STRESS PERIOD   2
  ------------------------------------------------------------------------------

     CUMULATIVE VOLUMES      L**3       RATES FOR THIS TIME STEP      L**3/T
     ------------------                 ------------------------

           IN:                                      IN:
           ---                                      ---
             STORAGE =       15908.2080               STORAGE =         487.8756
       CONSTANT HEAD =       17907.3281         CONSTANT HEAD =         551.8473
               WELLS =           0.0000                 WELLS =           0.0000

            TOTAL IN =       33815.5352              TOTAL IN =        1039.7229

          OUT:                                     OUT:
          ----                                     ----
             STORAGE =       9.3745E-03               STORAGE =           0.0000
       CONSTANT HEAD =       17815.5234         CONSTANT HEAD =         539.7234
               WELLS =       16000.0000                 WELLS =         500.0000

           TOTAL OUT =       33815.5312             TOTAL OUT =        1039.7234

            IN - OUT =       3.9063E-03              IN - OUT =      -4.8828E-04

 PERCENT DISCREPANCY =           0.00     PERCENT DISCREPANCY =           0.00






          TIME SUMMARY AT END OF TIME STEP  32 IN STRESS PERIOD    2
                    SECONDS     MINUTES      HOURS       DAYS        YEARS
                    -----------------------------------------------------------
   TIME STEP LENGTH  86400.      1440.0      24.000      1.0000     2.73785E-03
 STRESS PERIOD TIME 2.76480E+06  46080.      768.00      32.000     8.76112E-02
         TOTAL TIME 2.85120E+06  47520.      792.00      33.000     9.03491E-02
1
 
 SOLVING FOR HEAD 

 OUTPUT CONTROL FOR STRESS PERIOD    2   TIME STEP  33
    SAVE HEAD FOR ALL LAYERS
    SAVE DRAWDOWN FOR ALL LAYERS
    SAVE BUDGET
    PRINT HEAD FOR ALL LAYERS
    PRINT BUDGET
 UBDSV1 SAVING "         STORAGE" ON UNIT  53 AT TIME STEP 33, STRESS PERIOD   2
 UBDSV2 SAVING "   CONSTANT HEAD" ON UNIT  53 AT TIME STEP 33, STRESS PERIOD   2
 UBDSV1 SAVING "FLOW RIGHT FACE " ON UNIT  53 AT TIME STEP 33, STRESS PERIOD   2
 UBDSV1 SAVING "FLOW FRONT FACE " ON UNIT  53 AT TIME STEP 33, STRESS PERIOD   2
1
              HEAD IN LAYER   1 AT END OF TIME STEP  33 IN STRESS PERIOD    2
  ---------------------------------------------------------------------------

            1           2           3           4           5           6           7           8           9          10
           11          12          13          14          15          16          17          18          19          20
           21          22          23          24          25          26          27          28          29          30
           31          32          33          34          35          36          37          38          39          40
           41          42          43          44          45          46          47          48          49          50
 ........................................................................................................................
   1    10.00       9.959       9.902       9.846       9.800       9.742       9.686       9.628       9.549       9.484    
        9.446       9.408       9.365       9.323       9.255       9.180       9.098       9.034       9.005       8.973    
        8.933       8.899       8.863       8.818       8.754       8.644       8.511       8.381       8.231       8.082    
        7.870       7.534       7.138       6.721       6.254       5.822       5.457       5.117       4.653       4.149    
        3.720       3.295       2.710       2.154       1.765       1.376       1.049      0.8379      0.5557       0.000    
   2    10.00       9.958       9.908       9.852       9.802       9.749       9.687       9.610       9.534       9.484    
        9.450       9.416       9.383       9.330       9.252       9.175       9.100       9.037       9.006       8.970    
        8.929       8.903       8.874       8.826       8.754       8.648       8.514       8.379       8.238       8.090    
        7.860       7.514       7.098       6.627       6.155       5.739       5.412       5.079       4.609       4.136    
        3.703       3.192       2.663       2.223       1.837       1.473       1.100      0.7958      0.4249       0.000    
   3    10.00       9.954       9.906       9.855       9.804       9.743       9.666       9.593       9.545       9.499    
        9.460       9.430       9.398       9.348       9.270       9.173       9.095       9.043       9.004       8.967    
        8.933       8.905       8.877       8.817       8.739       8.633       8.506       8.404       8.256       8.079    
        7.784       7.383       6.941       6.485       6.050       5.662       5.370       5.027       4.519       4.059    
        3.698       3.232       2.744       2.321       1.919       1.552       1.110      0.6829      0.3003       0.000    
   4    10.00       9.958       9.909       9.853       9.790       9.721       9.647       9.592       9.551       9.509    
        9.474       9.449       9.413       9.359       9.288       9.183       9.095       9.047       9.005       8.970    
        8.932       8.899       8.863       8.800       8.721       8.618       8.495       8.381       8.266       8.046    
        7.667       7.178       6.707       6.359       6.032       5.655       5.278       4.844       4.415       4.079    
        3.757       3.343       2.853       2.435       2.013       1.568       1.059      0.6065      0.2824       0.000    
   5    10.00       9.955       9.903       9.839       9.775       9.710       9.645       9.599       9.556       9.520    
        9.489       9.463       9.421       9.358       9.275       9.179       9.105       9.052       9.009       8.962    
        8.917       8.883       8.838       8.773       8.699       8.583       8.461       8.363       8.247       7.969    
        7.475       6.941       6.553       6.287       5.991       5.607       5.179       4.751       4.445       4.159    
        3.866       3.438       2.926       2.560       2.131       1.549      0.9641      0.5598      0.2815       0.000    
   6    10.00       9.944       9.883       9.833       9.772       9.705       9.650       9.608       9.564       9.531    
        9.503       9.470       9.416       9.344       9.273       9.193       9.113       9.048       8.993       8.939    
        8.900       8.864       8.822       8.754       8.645       8.534       8.443       8.337       8.145       7.747    
        7.201       6.721       6.424       6.223       5.983       5.563       5.097       4.754       4.528       4.276    
        3.991       3.602       3.093       2.637       2.105       1.481      0.8644      0.4923      0.2750       0.000    
   7    10.00       9.928       9.870       9.822       9.764       9.715       9.663       9.620       9.583       9.547    
        9.511       9.463       9.399       9.329       9.264       9.199       9.110       9.023       8.965       8.920    
        8.882       8.842       8.799       8.709       8.599       8.509       8.409       8.242       7.924       7.421    
        6.904       6.529       6.344       6.186       5.882       5.470       5.161       4.859       4.611       4.435    
        4.145       3.742       3.196       2.605       1.950       1.234      0.7244      0.4998      0.2531       0.000    
   8    10.00       9.924       9.870       9.818       9.766       9.723       9.679       9.637       9.601       9.567    
        9.514       9.446       9.378       9.317       9.256       9.177       9.071       8.990       8.945       8.902    
        8.858       8.824       8.755       8.659       8.561       8.456       8.271       8.008       7.577       7.144    
        6.756       6.457       6.314       6.122       5.782       5.463       5.205       4.982       4.781       4.571    
        4.270       3.772       3.141       2.467       1.721       1.114      0.7666      0.4902      0.2258       0.000    
   9    10.00       9.928       9.867       9.816       9.779       9.743       9.700       9.659       9.618       9.578    
        9.512       9.429       9.360       9.297       9.225       9.136       9.041       8.969       8.922       8.877    
        8.837       8.783       8.688       8.600       8.501       8.356       8.091       7.697       7.273       6.961    
        6.655       6.431       6.271       6.017       5.703       5.454       5.269       5.096       4.923       4.694    
        4.319       3.799       3.128       2.375       1.687       1.153      0.7819      0.4862      0.2410       0.000    
  10    10.00       9.926       9.865       9.823       9.790       9.755       9.718       9.682       9.635       9.573    
        9.493       9.410       9.342       9.274       9.198       9.096       9.000       8.942       8.900       8.855    
        8.813       8.726       8.625       8.529       8.394       8.181       7.791       7.364       7.026       6.790    
        6.604       6.418       6.207       5.946       5.675       5.483       5.341       5.198       5.004       4.738    
        4.334       3.764       3.045       2.372       1.828       1.321      0.8372      0.5161      0.2719       0.000    
  11    10.00       9.917       9.870       9.834       9.801       9.771       9.737       9.690       9.624       9.555    
        9.475       9.394       9.329       9.239       9.137       9.047       8.978       8.923       8.881       8.831    
        8.757       8.647       8.503       8.363       8.131       7.817       7.471       7.182       6.905       6.730    
        6.574       6.335       6.095       5.900       5.717       5.571       5.428       5.243       5.013       4.701    
        4.322       3.817       3.087       2.472       1.988       1.501      0.9640      0.5110      0.2051       0.000    
  12    10.00       9.924       9.878       9.841       9.813       9.781       9.744       9.681       9.603       9.532    
        9.458       9.377       9.290       9.183       9.098       9.021       8.949       8.903       8.850       8.776    
        8.635       8.448       8.249       8.040       7.755       7.513       7.324       7.030       6.798       6.655    
        6.487       6.268       6.072       5.905       5.782       5.650       5.478       5.269       4.993       4.665    
        4.290       3.795       3.125       2.574       2.135       1.608       1.014      0.4829      0.1606       0.000    
  13    10.00       9.941       9.898       9.858       9.823       9.786       9.733       9.655       9.575       9.505    
        9.427       9.347       9.256       9.146       9.049       8.972       8.921       8.863       8.790       8.621    
        8.368       8.141       7.923       7.663       7.438       7.324       7.095       6.828       6.704       6.582    
        6.399       6.206       6.062       5.942       5.838       5.717       5.519       5.256       4.985       4.644    
        4.270       3.764       3.072       2.557       2.149       1.572      0.9437      0.4367      0.1262       0.000    
  14    10.00       9.957       9.918       9.876       9.834       9.779       9.702       9.621       9.549       9.471    
        9.393       9.319       9.212       9.090       9.003       8.940       8.860       8.774       8.606       8.311    
        8.040       7.834       7.547       7.331       7.226       7.099       6.863       6.705       6.585       6.467    
        6.310       6.183       6.092       5.988       5.879       5.751       5.530       5.240       4.948       4.601    
        4.198       3.588       2.936       2.519       2.020       1.467      0.9311      0.3990      0.1027       0.000    
  15    10.00       9.966       9.927       9.885       9.837       9.755       9.661       9.590       9.518       9.443    
        9.384       9.299       9.160       9.027       8.948       8.843       8.736       8.626       8.346       7.998    
        7.770       7.479       7.213       7.128       7.060       6.897       6.706       6.551       6.462       6.374    
        6.272       6.194       6.119       6.031       5.914       5.756       5.501       5.171       4.864       4.542    
        4.106       3.511       2.946       2.385       1.782       1.287      0.8009      0.3518      0.1056       0.000    
  16    10.00       9.975       9.937       9.888       9.813       9.713       9.632       9.574       9.510       9.433    
        9.354       9.235       9.076       8.949       8.835       8.711       8.637       8.419       8.011       7.686    
        7.453       7.162       7.058       7.003       6.883       6.677       6.522       6.446       6.410       6.346    
        6.267       6.202       6.143       6.050       5.908       5.714       5.407       5.106       4.862       4.514    
        4.017       3.376       2.727       2.105       1.593       1.104      0.6826      0.3341      0.1126       0.000    
  17    10.00       9.975       9.935       9.871       9.779       9.679       9.611       9.559       9.488       9.403    
        9.275       9.123       8.980       8.842       8.701       8.582       8.403       8.038       7.650       7.420    
        7.188       7.004       6.922       6.804       6.614       6.459       6.415       6.400       6.374       6.315    
        6.252       6.200       6.145       6.060       5.863       5.595       5.330       5.114       4.880       4.442    
        3.778       3.126       2.508       1.899       1.362      0.8935      0.5722      0.2988      0.1227       0.000    
  18    10.00       9.970       9.924       9.847       9.732       9.653       9.599       9.528       9.449       9.332    
        9.178       9.043       8.898       8.714       8.529       8.332       8.069       7.693       7.398       7.193    
        7.001       6.845       6.720       6.552       6.420       6.376       6.363       6.354       6.324       6.278    
        6.235       6.192       6.128       5.988       5.782       5.552       5.324       5.130       4.802       4.219    
        3.541       2.848       2.190       1.691       1.264      0.8376      0.4915      0.2471      0.1184       0.000    
  19    10.00       9.963       9.912       9.801       9.688       9.641       9.582       9.496       9.398       9.272    
        9.132       9.005       8.798       8.519       8.298       8.093       7.771       7.422       7.219       7.060    
        6.860       6.671       6.533       6.402       6.336       6.318       6.310       6.289       6.256       6.234    
        6.209       6.168       6.077       5.938       5.760       5.534       5.324       5.046       4.489       3.886    
        3.340       2.625       2.001       1.605       1.182      0.7557      0.4437      0.2516      0.1289       0.000    
  20    10.00       9.955       9.870       9.757       9.674       9.624       9.561       9.469       9.360       9.247    
        9.103       8.910       8.602       8.322       8.124       7.867       7.543       7.350       7.163       6.941    
        6.720       6.550       6.406       6.312       6.264       6.238       6.209       6.199       6.182       6.179    
        6.166       6.129       6.033       5.897       5.712       5.513       5.251       4.747       4.146       3.665    
        3.076       2.418       1.952       1.570       1.142      0.6703      0.3874      0.2618      0.1349       0.000    
  21    10.00       9.925       9.835       9.740       9.660       9.607       9.539       9.432       9.325       9.217    
        9.026       8.733       8.416       8.202       7.978       7.706       7.463       7.278       7.052       6.816    
        6.603       6.436       6.309       6.211       6.144       6.095       6.079       6.086       6.087       6.098    
        6.105       6.061       5.961       5.827       5.638       5.417       5.010       4.479       4.002       3.418    
        2.860       2.343       1.949       1.563      0.9615      0.5422      0.3919      0.2957      0.1418       0.000    
  22    10.00       9.905       9.798       9.714       9.650       9.586       9.492       9.393       9.298       9.151    
        8.906       8.573       8.318       8.124       7.871       7.590       7.355       7.157       6.949       6.725    
        6.512       6.335       6.167       6.016       5.931       5.912       5.929       5.945       5.980       6.001    
        6.013       5.964       5.877       5.736       5.540       5.319       4.899       4.381       3.758       3.195    
        2.792       2.378       1.905       1.258      0.7489      0.5402      0.4106      0.2734      0.1011       0.000    
  23    10.00       9.878       9.773       9.707       9.640       9.546       9.443       9.369       9.250       9.064    
        8.777       8.490       8.306       8.064       7.734       7.452       7.265       7.103       6.908       6.666    
        6.442       6.235       5.995       5.714       5.508       5.552       5.687       5.776       5.855       5.905    
        5.917       5.878       5.792       5.661       5.474       5.221       4.795       4.156       3.533       3.135    
        2.763       2.243       1.566       1.013      0.7365      0.5507      0.3938      0.2323      9.2424E-02   0.000    
  24    10.00       9.860       9.784       9.705       9.610       9.512       9.433       9.350       9.235       8.989    
        8.717       8.505       8.298       7.975       7.610       7.406       7.248       7.089       6.867       6.639    
        6.440       6.178       5.794       5.260       4.607       4.879       5.282       5.563       5.725       5.806    
        5.835       5.801       5.726       5.581       5.377       5.064       4.528       3.925       3.456       3.042    
        2.586       2.008       1.404      0.9813      0.7376      0.5362      0.3591      0.2516      0.1235       0.000    
  25    10.00       9.876       9.799       9.699       9.600       9.510       9.431       9.355       9.181       8.941    
        8.732       8.517       8.244       7.887       7.617       7.435       7.258       7.066       6.863       6.667    
        6.439       6.188       5.640       4.622       2.802       4.166       4.908       5.348       5.615       5.746    
        5.779       5.751       5.665       5.470       5.196       4.779       4.280       3.807       3.404       2.918    
        2.369       1.817       1.308      0.9722      0.7643      0.5571      0.3783      0.2634      0.1640       0.000    
  26    10.00       9.893       9.818       9.713       9.606       9.524       9.440       9.327       9.155       8.988    
        8.791       8.496       8.162       7.872       7.669       7.492       7.287       7.051       6.855       6.691    
        6.502       6.255       5.785       5.040       4.212       4.572       5.025       5.354       5.602       5.735    
        5.750       5.709       5.582       5.352       5.053       4.656       4.107       3.661       3.286       2.701    
        2.082       1.598       1.295       1.062      0.8242      0.6014      0.4123      0.2861      0.1672       0.000    
  27    10.00       9.915       9.822       9.728       9.636       9.538       9.443       9.329       9.187       9.034    
        8.784       8.450       8.157       7.918       7.748       7.546       7.278       7.033       6.881       6.747    
        6.600       6.374       6.020       5.585       5.147       5.128       5.305       5.517       5.692       5.755    
        5.737       5.681       5.534       5.285       4.937       4.405       3.893       3.529       2.967       2.356    
        1.878       1.569       1.340       1.136      0.9010      0.6563      0.4479      0.3149      0.1986       0.000    
  28    10.00       9.920       9.844       9.759       9.668       9.565       9.460       9.349       9.225       9.044    
        8.751       8.460       8.204       7.971       7.791       7.592       7.374       7.141       6.929       6.792    
        6.675       6.515       6.290       5.979       5.717       5.567       5.608       5.737       5.789       5.787    
        5.738       5.652       5.472       5.162       4.707       4.162       3.729       3.224       2.644       2.213    
        1.874       1.612       1.389       1.175      0.9467      0.7162      0.5081      0.3585      0.2049       0.000    
  29    10.00       9.926       9.851       9.784       9.695       9.601       9.499       9.385       9.248       9.005    
        8.731       8.483       8.240       8.044       7.839       7.628       7.432       7.246       7.046       6.868    
        6.743       6.621       6.474       6.292       6.046       5.927       5.914       5.915       5.903       5.833    
        5.734       5.575       5.364       4.965       4.423       3.955       3.525       3.004       2.543       2.229    
        1.955       1.668       1.414       1.210       1.004      0.7573      0.5368      0.3746      0.2077       0.000    
  30    10.00       9.936       9.874       9.814       9.735       9.642       9.550       9.420       9.235       9.013    
        8.735       8.466       8.267       8.070       7.875       7.686       7.528       7.359       7.165       6.977    
        6.826       6.724       6.600       6.479       6.346       6.231       6.183       6.090       6.007       5.876    
        5.688       5.427       5.142       4.731       4.316       3.884       3.428       2.944       2.597       2.314    
        1.988       1.700       1.480       1.247       1.002      0.7835      0.5721      0.3978      0.2235       0.000    
  31    10.00       9.949       9.898       9.841       9.781       9.706       9.601       9.439       9.227       8.993    
        8.725       8.483       8.301       8.109       7.928       7.754       7.599       7.467       7.272       7.085    
        6.948       6.840       6.743       6.644       6.562       6.454       6.340       6.230       6.078       5.873    
        5.577       5.257       4.973       4.651       4.260       3.806       3.348       2.954       2.711       2.441    
        2.079       1.763       1.512       1.276       1.049      0.8241      0.6061      0.4185      0.2167       0.000    
  32    10.00       9.955       9.919       9.869       9.812       9.741       9.627       9.440       9.246       9.025    
        8.748       8.526       8.354       8.155       7.962       7.819       7.686       7.530       7.374       7.193    
        7.050       6.935       6.841       6.745       6.656       6.572       6.440       6.289       6.082       5.802    
        5.474       5.169       4.886       4.583       4.201       3.795       3.437       3.104       2.825       2.515    
        2.180       1.869       1.604       1.333       1.086      0.8958      0.6682      0.4105      0.1833       0.000    
  33    10.00       9.962       9.933       9.891       9.833       9.756       9.607       9.422       9.265       9.066    
        8.813       8.602       8.399       8.174       8.003       7.885       7.770       7.611       7.440       7.280    
        7.124       7.003       6.884       6.783       6.708       6.624       6.464       6.247       6.025       5.762    
        5.439       5.173       4.882       4.516       4.164       3.806       3.517       3.253       2.936       2.595    
        2.306       2.012       1.722       1.442       1.181      0.9696      0.7146      0.4123      0.1792       0.000    
  34    10.00       9.968       9.946       9.910       9.834       9.720       9.582       9.453       9.291       9.094    
        8.878       8.646       8.416       8.195       8.057       7.962       7.838       7.684       7.490       7.333    
        7.188       7.036       6.909       6.813       6.735       6.616       6.424       6.219       5.989       5.683    
        5.399       5.189       4.900       4.549       4.205       3.879       3.606       3.344       3.018       2.710    
        2.454       2.170       1.854       1.575       1.311       1.068      0.7640      0.4638      0.2432       0.000    
  35    10.00       9.974       9.946       9.894       9.799       9.687       9.588       9.477       9.345       9.131    
        8.892       8.658       8.424       8.244       8.125       8.024       7.889       7.725       7.534       7.347    
        7.185       7.039       6.910       6.819       6.733       6.613       6.408       6.167       5.897       5.579    
        5.369       5.145       4.858       4.602       4.317       3.977       3.678       3.460       3.154       2.827    
        2.580       2.290       1.973       1.698       1.424       1.158      0.8756      0.5802      0.2870       0.000    
  36    10.00       9.967       9.923       9.866       9.777       9.673       9.590       9.493       9.350       9.140    
        8.878       8.628       8.462       8.329       8.211       8.080       7.920       7.750       7.542       7.286    
        7.108       6.997       6.888       6.811       6.726       6.573       6.341       6.077       5.747       5.468    
        5.293       5.112       4.869       4.625       4.388       4.086       3.790       3.560       3.287       2.931    
        2.660       2.337       2.020       1.811       1.545       1.249      0.9658      0.6572      0.3215       0.000    
  37    10.00       9.950       9.902       9.845       9.758       9.666       9.571       9.478       9.345       9.099    
        8.825       8.635       8.539       8.410       8.261       8.129       7.926       7.712       7.438       7.174    
        7.064       6.970       6.864       6.779       6.677       6.487       6.252       5.903       5.606       5.429    
        5.282       5.092       4.854       4.664       4.424       4.139       3.908       3.687       3.381       2.990    
        2.635       2.332       2.112       1.895       1.628       1.347       1.064      0.7248      0.3979       0.000    
  38    10.00       9.942       9.880       9.820       9.743       9.656       9.554       9.453       9.299       9.067    
        8.862       8.713       8.591       8.472       8.308       8.085       7.852       7.598       7.290       7.120    
        7.032       6.906       6.793       6.723       6.602       6.394       6.047       5.724       5.574       5.442    
        5.288       5.089       4.876       4.688       4.453       4.195       4.007       3.782       3.392       2.962    
        2.654       2.401       2.183       1.959       1.723       1.437       1.155      0.8382      0.4142       0.000    
  39    10.00       9.925       9.865       9.810       9.736       9.636       9.527       9.422       9.276       9.087    
        8.926       8.812       8.673       8.506       8.258       7.974       7.711       7.411       7.195       7.090    
        6.951       6.804       6.718       6.649       6.531       6.250       5.908       5.721       5.586       5.450    
        5.276       5.090       4.886       4.699       4.522       4.311       4.063       3.791       3.407       3.007    
        2.681       2.420       2.249       2.061       1.795       1.513       1.226      0.8725      0.4088       0.000    
  40    10.00       9.917       9.858       9.803       9.725       9.621       9.516       9.411       9.281       9.123    
        8.990       8.888       8.711       8.442       8.127       7.842       7.563       7.308       7.155       7.017    
        6.855       6.729       6.659       6.570       6.411       6.159       5.935       5.751       5.601       5.460    
        5.290       5.092       4.900       4.744       4.590       4.376       4.091       3.807       3.416       2.987    
        2.683       2.476       2.287       2.126       1.847       1.537       1.276      0.8749      0.4073       0.000    
  41    10.00       9.924       9.856       9.788       9.705       9.622       9.534       9.436       9.308       9.163    
        9.035       8.908       8.673       8.349       8.024       7.759       7.486       7.245       7.093       6.941    
        6.779       6.670       6.590       6.484       6.321       6.136       5.987       5.810       5.623       5.458    
        5.296       5.118       4.935       4.800       4.636       4.423       4.138       3.746       3.298       2.968    
        2.747       2.547       2.351       2.128       1.837       1.541       1.317      0.9322      0.4227       0.000    
  42    10.00       9.923       9.846       9.786       9.725       9.649       9.554       9.442       9.332       9.220    
        9.053       8.829       8.555       8.245       7.943       7.702       7.435       7.202       7.037       6.866    
        6.715       6.618       6.529       6.433       6.288       6.162       6.036       5.836       5.626       5.479    
        5.347       5.152       4.957       4.827       4.675       4.448       4.098       3.635       3.226       2.980    
        2.813       2.635       2.386       2.088       1.809       1.577       1.345      0.9832      0.4851       0.000    
  43    10.00       9.917       9.851       9.800       9.750       9.677       9.583       9.477       9.353       9.175    
        8.956       8.724       8.468       8.146       7.876       7.652       7.412       7.177       6.969       6.808    
        6.674       6.577       6.502       6.424       6.302       6.173       6.045       5.837       5.655       5.547    
        5.387       5.178       4.990       4.855       4.678       4.385       3.980       3.542       3.243       3.055    
        2.878       2.672       2.367       2.061       1.815       1.591       1.391      0.9971      0.4556       0.000    
  44    10.00       9.916       9.859       9.812       9.753       9.698       9.620       9.476       9.290       9.083    
        8.898       8.664       8.354       8.085       7.870       7.613       7.350       7.100       6.894       6.753    
        6.655       6.573       6.499       6.419       6.314       6.181       6.010       5.838       5.716       5.587    
        5.444       5.261       5.046       4.842       4.625       4.297       3.872       3.512       3.282       3.100    
        2.920       2.677       2.382       2.117       1.854       1.614       1.368      0.9002      0.4140       0.000    
  45    10.00       9.925       9.872       9.811       9.753       9.705       9.576       9.403       9.214       9.037    
        8.885       8.571       8.249       8.053       7.821       7.535       7.249       7.018       6.852       6.742    
        6.667       6.590       6.509       6.415       6.299       6.168       6.024       5.892       5.785       5.651    
        5.485       5.296       5.075       4.816       4.558       4.205       3.807       3.523       3.348       3.160    
        2.922       2.643       2.390       2.149       1.915       1.676       1.278      0.8000      0.4026       0.000    
  46    10.00       9.940       9.882       9.811       9.745       9.648       9.508       9.377       9.218       9.028    
        8.774       8.475       8.217       7.969       7.721       7.444       7.178       7.008       6.872       6.767    
        6.692       6.617       6.514       6.397       6.284       6.175       6.061       5.941       5.833       5.715    
        5.565       5.366       5.114       4.808       4.439       4.072       3.778       3.578       3.394       3.199    
        2.917       2.620       2.368       2.177       1.954       1.643       1.190      0.7641      0.3767       0.000    
  47    10.00       9.951       9.896       9.825       9.711       9.584       9.464       9.361       9.215       8.964    
        8.660       8.386       8.161       7.953       7.691       7.389       7.155       6.994       6.885       6.797    
        6.716       6.628       6.519       6.396       6.287       6.201       6.107       5.988       5.864       5.748    
        5.617       5.450       5.117       4.687       4.328       4.065       3.818       3.645       3.483       3.213    
        2.869       2.555       2.326       2.195       1.948       1.567       1.125      0.7370      0.3723       0.000    
  48    10.00       9.955       9.900       9.794       9.676       9.567       9.446       9.341       9.194       8.910    
        8.578       8.349       8.165       7.910       7.604       7.332       7.156       6.994       6.885       6.817    
        6.734       6.629       6.511       6.399       6.309       6.241       6.157       6.026       5.882       5.757    
        5.620       5.419       5.071       4.715       4.394       4.104       3.884       3.707       3.500       3.156    
        2.786       2.545       2.363       2.130       1.806       1.468       1.089      0.7423      0.3929       0.000    
  49    10.00       9.953       9.868       9.766       9.678       9.560       9.442       9.332       9.145       8.845    
        8.549       8.329       8.099       7.842       7.611       7.358       7.113       6.962       6.895       6.831    
        6.753       6.631       6.495       6.398       6.330       6.279       6.183       6.031       5.879       5.767    
        5.618       5.353       5.047       4.795       4.526       4.206       3.921       3.703       3.459       3.090    
        2.793       2.580       2.330       1.994       1.707       1.402       1.071      0.7545      0.3842       0.000    
  50    10.00       9.941       9.848       9.754       9.683       9.573       9.442       9.302       9.100       8.863    
        8.563       8.269       8.029       7.824       7.638       7.355       7.076       6.962       6.904       6.841    
        6.766       6.629       6.484       6.395       6.341       6.295       6.187       6.024       5.879       5.764    
        5.602       5.324       5.088       4.872       4.581       4.262       3.974       3.684       3.333       3.007    
        2.849       2.626       2.260       1.923       1.682       1.391       1.104      0.7369      0.3027       0.000    

 HEAD WILL BE SAVED ON UNIT   51 AT END OF TIME STEP  33, STRESS PERIOD    2

 DRAWDOWN WILL BE SAVED ON UNIT   52 AT END OF TIME STEP  33, STRESS PERIOD    2
1
  VOLUMETRIC BUDGET FOR ENTIRE MODEL AT END OF TIME STEP 33 IN STRESS PERIOD   2
  ------------------------------------------------------------------------------

     CUMULATIVE VOLUMES      L**3       RATES FOR THIS TIME STEP      L**3/T
     ------------------                 ------------------------

           IN:                                      IN:
           ---                                      ---
             STORAGE =       16394.8789               STORAGE =         486.6717
       CONSTANT HEAD =       18460.3516         CONSTANT HEAD =         553.0226
               WELLS =           0.0000                 WELLS =           0.0000

            TOTAL IN =       34855.2305              TOTAL IN =        1039.6943

          OUT:                                     OUT:
          ----                                     ----
             STORAGE =       9.3745E-03               STORAGE =           0.0000
       CONSTANT HEAD =       18355.2188         CONSTANT HEAD =         539.6945
               WELLS =       16500.0000                 WELLS =         500.0000

           TOTAL OUT =       34855.2266             TOTAL OUT =        1039.6945

            IN - OUT =       3.9063E-03              IN - OUT =      -1.2207E-04

 PERCENT DISCREPANCY =           0.00     PERCENT DISCREPANCY =           0.00






          TIME SUMMARY AT END OF TIME STEP  33 IN STRESS PERIOD    2
                    SECONDS     MINUTES      HOURS       DAYS        YEARS
                    -----------------------------------------------------------
   TIME STEP LENGTH  86400.      1440.0      24.000      1.0000     2.73785E-03
 STRESS PERIOD TIME 2.85120E+06  47520.      792.00      33.000     9.03491E-02
         TOTAL TIME 2.93760E+06  48960.      816.00      34.000     9.30869E-02
1
 
 SOLVING FOR HEAD 

 OUTPUT CONTROL FOR STRESS PERIOD    2   TIME STEP  34
    SAVE HEAD FOR ALL LAYERS
    SAVE DRAWDOWN FOR ALL LAYERS
    SAVE BUDGET
    PRINT HEAD FOR ALL LAYERS
    PRINT BUDGET
 UBDSV1 SAVING "         STORAGE" ON UNIT  53 AT TIME STEP 34, STRESS PERIOD   2
 UBDSV2 SAVING "   CONSTANT HEAD" ON UNIT  53 AT TIME STEP 34, STRESS PERIOD   2
 UBDSV1 SAVING "FLOW RIGHT FACE " ON UNIT  53 AT TIME STEP 34, STRESS PERIOD   2
 UBDSV1 SAVING "FLOW FRONT FACE " ON UNIT  53 AT TIME STEP 34, STRESS PERIOD   2
1
              HEAD IN LAYER   1 AT END OF TIME STEP  34 IN STRESS PERIOD    2
  ---------------------------------------------------------------------------

            1           2           3           4           5           6           7           8           9          10
           11          12          13          14          15          16          17          18          19          20
           21          22          23          24          25          26          27          28          29          30
           31          32          33          34          35          36          37          38          39          40
           41          42          43          44          45          46          47          48          49          50
 ........................................................................................................................
   1    10.00       9.959       9.902       9.846       9.799       9.742       9.686       9.627       9.548       9.483    
        9.445       9.406       9.364       9.321       9.253       9.178       9.096       9.032       9.003       8.971    
        8.931       8.896       8.861       8.815       8.752       8.642       8.509       8.379       8.229       8.080    
        7.868       7.532       7.136       6.720       6.253       5.821       5.456       5.116       4.652       4.148    
        3.719       3.294       2.709       2.154       1.765       1.375       1.049      0.8378      0.5556       0.000    
   2    10.00       9.958       9.908       9.851       9.801       9.749       9.686       9.609       9.533       9.483    
        9.449       9.414       9.382       9.329       9.250       9.173       9.098       9.035       9.004       8.967    
        8.926       8.900       8.872       8.823       8.751       8.646       8.512       8.377       8.236       8.088    
        7.858       7.512       7.096       6.625       6.154       5.738       5.411       5.078       4.608       4.135    
        3.702       3.191       2.663       2.223       1.836       1.473       1.100      0.7957      0.4248       0.000    
   3    10.00       9.954       9.906       9.854       9.804       9.743       9.665       9.592       9.544       9.498    
        9.458       9.428       9.396       9.346       9.268       9.171       9.092       9.040       9.001       8.965    
        8.931       8.903       8.874       8.814       8.737       8.631       8.504       8.402       8.254       8.077    
        7.782       7.381       6.939       6.484       6.049       5.661       5.368       5.026       4.518       4.058    
        3.697       3.231       2.743       2.320       1.918       1.551       1.110      0.6828      0.3003       0.000    
   4    10.00       9.958       9.909       9.852       9.790       9.720       9.646       9.591       9.550       9.507    
        9.473       9.447       9.411       9.358       9.286       9.181       9.093       9.045       9.002       8.968    
        8.930       8.896       8.860       8.797       8.718       8.616       8.493       8.379       8.264       8.043    
        7.664       7.175       6.705       6.356       6.030       5.653       5.277       4.843       4.414       4.077    
        3.756       3.342       2.852       2.435       2.013       1.568       1.059      0.6064      0.2824       0.000    
   5    10.00       9.955       9.903       9.839       9.774       9.709       9.644       9.598       9.555       9.518    
        9.488       9.461       9.419       9.357       9.273       9.177       9.102       9.050       9.007       8.959    
        8.915       8.881       8.835       8.770       8.697       8.580       8.458       8.360       8.245       7.966    
        7.472       6.938       6.550       6.284       5.988       5.605       5.177       4.749       4.443       4.157    
        3.865       3.437       2.926       2.560       2.130       1.548      0.9639      0.5597      0.2815       0.000    
   6    10.00       9.944       9.882       9.832       9.771       9.704       9.649       9.607       9.563       9.529    
        9.502       9.469       9.415       9.342       9.271       9.191       9.110       9.045       8.991       8.936    
        8.897       8.861       8.819       8.751       8.642       8.531       8.440       8.333       8.142       7.744    
        7.198       6.717       6.420       6.219       5.979       5.560       5.094       4.751       4.526       4.274    
        3.989       3.601       3.092       2.636       2.105       1.481      0.8642      0.4922      0.2750       0.000    
   7    10.00       9.928       9.870       9.821       9.763       9.715       9.662       9.619       9.582       9.546    
        9.509       9.462       9.397       9.327       9.262       9.197       9.108       9.020       8.962       8.917    
        8.879       8.839       8.796       8.706       8.595       8.505       8.406       8.238       7.920       7.417    
        6.900       6.524       6.339       6.182       5.878       5.466       5.157       4.855       4.608       4.432    
        4.142       3.740       3.195       2.604       1.949       1.234      0.7243      0.4997      0.2530       0.000    
   8    10.00       9.924       9.870       9.818       9.766       9.723       9.678       9.636       9.600       9.566    
        9.513       9.444       9.377       9.315       9.254       9.174       9.069       8.987       8.942       8.899    
        8.854       8.820       8.751       8.656       8.558       8.452       8.267       8.003       7.572       7.138    
        6.750       6.451       6.308       6.117       5.777       5.458       5.201       4.978       4.777       4.568    
        4.267       3.770       3.140       2.467       1.720       1.114      0.7665      0.4901      0.2258       0.000    
   9    10.00       9.927       9.867       9.816       9.778       9.742       9.699       9.658       9.617       9.577    
        9.511       9.428       9.358       9.295       9.223       9.133       9.038       8.965       8.918       8.874    
        8.833       8.779       8.684       8.596       8.496       8.351       8.086       7.691       7.266       6.954    
        6.647       6.424       6.265       6.010       5.697       5.448       5.264       5.092       4.919       4.691    
        4.317       3.798       3.126       2.374       1.687       1.153      0.7818      0.4861      0.2410       0.000    
  10    10.00       9.926       9.865       9.823       9.790       9.754       9.717       9.681       9.634       9.571    
        9.492       9.408       9.340       9.271       9.195       9.092       8.997       8.939       8.896       8.851    
        8.809       8.722       8.620       8.524       8.388       8.175       7.784       7.356       7.017       6.781    
        6.595       6.410       6.199       5.939       5.669       5.477       5.336       5.193       5.000       4.734    
        4.332       3.762       3.044       2.371       1.827       1.320      0.8370      0.5160      0.2719       0.000    
  11    10.00       9.917       9.869       9.834       9.801       9.770       9.737       9.689       9.623       9.553    
        9.474       9.392       9.326       9.237       9.133       9.043       8.974       8.919       8.877       8.827    
        8.753       8.642       8.497       8.356       8.124       7.808       7.461       7.171       6.895       6.721    
        6.564       6.326       6.086       5.892       5.709       5.564       5.422       5.238       5.009       4.698    
        4.320       3.815       3.086       2.471       1.988       1.501      0.9639      0.5109      0.2051       0.000    
  12    10.00       9.924       9.877       9.840       9.812       9.780       9.743       9.680       9.602       9.531    
        9.456       9.375       9.287       9.179       9.094       9.017       8.945       8.898       8.846       8.771    
        8.629       8.441       8.241       8.031       7.744       7.501       7.312       7.018       6.786       6.644    
        6.476       6.258       6.062       5.896       5.773       5.642       5.472       5.263       4.988       4.661    
        4.287       3.793       3.124       2.573       2.134       1.607       1.013      0.4829      0.1606       0.000    
  13    10.00       9.941       9.898       9.858       9.822       9.785       9.732       9.654       9.573       9.503    
        9.425       9.344       9.253       9.142       9.045       8.968       8.917       8.858       8.784       8.615    
        8.360       8.131       7.912       7.650       7.424       7.311       7.081       6.814       6.690       6.569    
        6.387       6.195       6.052       5.932       5.829       5.708       5.512       5.250       4.980       4.640    
        4.267       3.762       3.071       2.556       2.149       1.572      0.9436      0.4367      0.1262       0.000    
  14    10.00       9.957       9.918       9.876       9.833       9.778       9.701       9.619       9.547       9.468    
        9.391       9.316       9.208       9.086       8.998       8.935       8.854       8.767       8.598       8.302    
        8.028       7.821       7.533       7.316       7.210       7.083       6.847       6.689       6.570       6.453    
        6.296       6.170       6.080       5.977       5.869       5.742       5.522       5.234       4.943       4.597    
        4.195       3.586       2.935       2.519       2.020       1.467      0.9310      0.3990      0.1027       0.000    
  15    10.00       9.966       9.927       9.885       9.836       9.754       9.659       9.588       9.516       9.441    
        9.381       9.296       9.155       9.022       8.942       8.836       8.729       8.618       8.335       7.985    
        7.756       7.463       7.196       7.111       7.043       6.880       6.688       6.534       6.446       6.358    
        6.257       6.180       6.106       6.019       5.903       5.747       5.493       5.165       4.859       4.538    
        4.103       3.509       2.944       2.384       1.782       1.287      0.8008      0.3517      0.1055       0.000    
  16    10.00       9.975       9.937       9.887       9.812       9.711       9.630       9.572       9.508       9.431    
        9.351       9.231       9.070       8.943       8.828       8.704       8.629       8.409       7.997       7.671    
        7.436       7.144       7.040       6.985       6.864       6.659       6.503       6.427       6.392       6.329    
        6.251       6.187       6.129       6.037       5.896       5.704       5.399       5.100       4.856       4.510    
        4.014       3.374       2.726       2.105       1.593       1.104      0.6825      0.3340      0.1126       0.000    
  17    10.00       9.975       9.935       9.871       9.778       9.678       9.610       9.557       9.486       9.400    
        9.271       9.118       8.974       8.835       8.693       8.573       8.392       8.024       7.633       7.403    
        7.169       6.985       6.903       6.784       6.594       6.439       6.395       6.380       6.355       6.298    
        6.236       6.184       6.130       6.047       5.851       5.586       5.322       5.108       4.874       4.438    
        3.776       3.124       2.507       1.898       1.362      0.8933      0.5722      0.2988      0.1227       0.000    
  18    10.00       9.970       9.923       9.846       9.731       9.651       9.597       9.526       9.446       9.328    
        9.173       9.037       8.891       8.705       8.519       8.320       8.055       7.676       7.379       7.174    
        6.981       6.824       6.699       6.531       6.399       6.356       6.342       6.334       6.304       6.259    
        6.218       6.175       6.113       5.974       5.770       5.542       5.316       5.123       4.797       4.215    
        3.539       2.847       2.189       1.691       1.264      0.8375      0.4914      0.2471      0.1184       0.000    
  19    10.00       9.963       9.912       9.801       9.686       9.639       9.580       9.493       9.395       9.268    
        9.127       8.999       8.790       8.509       8.286       8.079       7.755       7.403       7.199       7.040    
        6.840       6.650       6.512       6.380       6.314       6.297       6.289       6.268       6.236       6.215    
        6.190       6.151       6.061       5.923       5.747       5.524       5.316       5.039       4.484       3.883    
        3.338       2.624       2.000       1.605       1.182      0.7556      0.4437      0.2516      0.1288       0.000    
  20    10.00       9.954       9.870       9.756       9.673       9.622       9.559       9.466       9.357       9.242    
        9.097       8.903       8.591       8.310       8.109       7.851       7.525       7.330       7.143       6.920    
        6.699       6.528       6.384       6.290       6.242       6.217       6.187       6.178       6.161       6.158    
        6.147       6.111       6.016       5.882       5.700       5.502       5.242       4.741       4.142       3.663    
        3.074       2.418       1.951       1.569       1.142      0.6702      0.3873      0.2618      0.1349       0.000    
  21    10.00       9.925       9.834       9.739       9.658       9.605       9.537       9.429       9.321       9.213    
        9.020       8.724       8.404       8.189       7.962       7.688       7.444       7.258       7.032       6.795    
        6.581       6.413       6.287       6.189       6.122       6.073       6.057       6.064       6.066       6.077    
        6.085       6.042       5.943       5.812       5.625       5.406       5.002       4.474       3.998       3.416    
        2.859       2.342       1.949       1.562      0.9613      0.5422      0.3919      0.2957      0.1417       0.000    
  22    10.00       9.905       9.797       9.712       9.648       9.585       9.489       9.390       9.294       9.145    
        8.898       8.562       8.305       8.109       7.855       7.572       7.335       7.136       6.928       6.703    
        6.490       6.312       6.145       5.994       5.908       5.889       5.906       5.922       5.958       5.979    
        5.992       5.944       5.859       5.720       5.527       5.308       4.891       4.376       3.756       3.194    
        2.791       2.378       1.904       1.258      0.7489      0.5402      0.4106      0.2733      0.1011       0.000    
  23    10.00       9.878       9.773       9.706       9.639       9.544       9.440       9.366       9.245       9.058    
        8.768       8.478       8.293       8.049       7.717       7.433       7.245       7.083       6.887       6.644    
        6.420       6.212       5.973       5.691       5.484       5.529       5.664       5.753       5.832       5.883    
        5.896       5.858       5.774       5.645       5.461       5.211       4.788       4.152       3.531       3.134    
        2.763       2.242       1.566       1.013      0.7365      0.5506      0.3938      0.2323      9.2420E-02   0.000    
  24    10.00       9.859       9.783       9.704       9.608       9.509       9.430       9.347       9.230       8.982    
        8.708       8.494       8.284       7.959       7.592       7.387       7.229       7.069       6.846       6.617    
        6.418       6.155       5.771       5.236       4.583       4.855       5.258       5.539       5.702       5.783    
        5.813       5.780       5.708       5.565       5.364       5.054       4.521       3.921       3.454       3.041    
        2.586       2.007       1.404      0.9812      0.7375      0.5362      0.3591      0.2516      0.1235       0.000    
  25    10.00       9.875       9.798       9.698       9.598       9.507       9.428       9.351       9.176       8.934    
        8.722       8.505       8.231       7.871       7.599       7.416       7.238       7.046       6.842       6.646    
        6.416       6.165       5.617       4.598       2.777       4.141       4.883       5.323       5.591       5.723    
        5.757       5.730       5.647       5.455       5.184       4.770       4.274       3.803       3.402       2.917    
        2.368       1.817       1.308      0.9721      0.7643      0.5571      0.3783      0.2634      0.1640       0.000    
  26    10.00       9.892       9.817       9.712       9.604       9.522       9.437       9.323       9.149       8.981    
        8.783       8.485       8.148       7.856       7.652       7.474       7.267       7.031       6.834       6.669    
        6.480       6.232       5.761       5.016       4.187       4.547       5.000       5.329       5.577       5.712    
        5.729       5.689       5.564       5.338       5.041       4.648       4.102       3.658       3.284       2.700    
        2.081       1.598       1.295       1.062      0.8241      0.6014      0.4123      0.2861      0.1672       0.000    
  27    10.00       9.914       9.821       9.727       9.634       9.536       9.440       9.325       9.182       9.027    
        8.776       8.439       8.143       7.902       7.731       7.528       7.259       7.013       6.860       6.726    
        6.578       6.351       5.997       5.561       5.122       5.103       5.280       5.492       5.668       5.732    
        5.717       5.661       5.517       5.271       4.926       4.398       3.889       3.527       2.965       2.356    
        1.878       1.568       1.340       1.135      0.9010      0.6563      0.4479      0.3149      0.1986       0.000    
  28    10.00       9.920       9.844       9.758       9.666       9.562       9.456       9.345       9.220       9.038    
        8.742       8.449       8.191       7.956       7.775       7.575       7.356       7.122       6.908       6.771    
        6.654       6.493       6.267       5.956       5.693       5.543       5.583       5.713       5.765       5.765    
        5.718       5.634       5.456       5.150       4.699       4.157       3.726       3.222       2.643       2.213    
        1.874       1.612       1.388       1.175      0.9466      0.7161      0.5081      0.3585      0.2049       0.000    
  29    10.00       9.926       9.851       9.783       9.693       9.599       9.496       9.381       9.243       8.999    
        8.722       8.473       8.228       8.030       7.824       7.612       7.414       7.228       7.026       6.847    
        6.723       6.600       6.452       6.270       6.023       5.904       5.890       5.892       5.881       5.812    
        5.715       5.559       5.350       4.956       4.417       3.951       3.523       3.003       2.542       2.229    
        1.954       1.667       1.414       1.210       1.004      0.7573      0.5368      0.3746      0.2077       0.000    
  30    10.00       9.935       9.873       9.814       9.733       9.640       9.547       9.417       9.230       9.007    
        8.727       8.455       8.255       8.056       7.860       7.670       7.511       7.341       7.146       6.957    
        6.806       6.703       6.579       6.457       6.324       6.209       6.161       6.068       5.987       5.857    
        5.672       5.415       5.132       4.725       4.312       3.882       3.427       2.943       2.597       2.314    
        1.988       1.700       1.480       1.247       1.002      0.7835      0.5721      0.3978      0.2235       0.000    
  31    10.00       9.948       9.897       9.840       9.780       9.704       9.599       9.436       9.222       8.986    
        8.717       8.473       8.290       8.096       7.915       7.739       7.583       7.450       7.255       7.067    
        6.929       6.820       6.723       6.624       6.543       6.434       6.320       6.211       6.060       5.857    
        5.564       5.248       4.966       4.646       4.257       3.804       3.346       2.954       2.711       2.441    
        2.079       1.763       1.512       1.276       1.048      0.8240      0.6061      0.4185      0.2167       0.000    
  32    10.00       9.955       9.918       9.869       9.811       9.740       9.626       9.437       9.242       9.019    
        8.741       8.516       8.344       8.144       7.949       7.806       7.672       7.515       7.358       7.175    
        7.032       6.917       6.823       6.728       6.638       6.554       6.422       6.273       6.068       5.790    
        5.464       5.162       4.881       4.579       4.199       3.794       3.436       3.103       2.824       2.514    
        2.180       1.869       1.604       1.333       1.086      0.8958      0.6681      0.4105      0.1833       0.000    
  33    10.00       9.962       9.933       9.890       9.832       9.755       9.605       9.419       9.262       9.061    
        8.807       8.594       8.389       8.163       7.991       7.873       7.756       7.597       7.425       7.264    
        7.107       6.987       6.868       6.767       6.691       6.608       6.449       6.234       6.014       5.753    
        5.432       5.168       4.878       4.513       4.162       3.805       3.516       3.253       2.936       2.594    
        2.306       2.012       1.722       1.442       1.181      0.9696      0.7146      0.4123      0.1792       0.000    
  34    10.00       9.968       9.946       9.910       9.833       9.718       9.580       9.451       9.288       9.089    
        8.872       8.639       8.407       8.185       8.047       7.951       7.826       7.671       7.476       7.319    
        7.174       7.021       6.894       6.798       6.720       6.602       6.412       6.208       5.980       5.676    
        5.394       5.185       4.897       4.547       4.203       3.878       3.605       3.344       3.018       2.710    
        2.454       2.170       1.854       1.575       1.311       1.068      0.7640      0.4638      0.2432       0.000    
  35    10.00       9.974       9.946       9.894       9.798       9.686       9.587       9.475       9.342       9.127    
        8.887       8.651       8.416       8.236       8.115       8.014       7.878       7.713       7.521       7.334    
        7.172       7.027       6.898       6.807       6.721       6.601       6.397       6.158       5.890       5.574    
        5.365       5.143       4.856       4.601       4.316       3.976       3.678       3.460       3.154       2.827    
        2.580       2.290       1.973       1.698       1.424       1.158      0.8756      0.5802      0.2870       0.000    
  36    10.00       9.967       9.923       9.866       9.776       9.672       9.589       9.491       9.347       9.137    
        8.873       8.622       8.456       8.322       8.202       8.071       7.910       7.740       7.531       7.275    
        7.098       6.987       6.878       6.801       6.716       6.563       6.333       6.071       5.743       5.465    
        5.290       5.111       4.868       4.624       4.387       4.085       3.790       3.559       3.287       2.931    
        2.660       2.337       2.020       1.811       1.545       1.249      0.9658      0.6572      0.3215       0.000    
  37    10.00       9.949       9.902       9.844       9.757       9.665       9.570       9.476       9.343       9.096    
        8.820       8.629       8.533       8.404       8.254       8.121       7.917       7.703       7.430       7.166    
        7.056       6.962       6.856       6.771       6.669       6.480       6.246       5.899       5.603       5.427    
        5.280       5.091       4.853       4.664       4.423       4.138       3.908       3.687       3.381       2.990    
        2.635       2.332       2.112       1.895       1.628       1.347       1.064      0.7248      0.3979       0.000    
  38    10.00       9.942       9.880       9.820       9.743       9.655       9.553       9.451       9.297       9.065    
        8.858       8.709       8.586       8.466       8.301       8.079       7.845       7.591       7.284       7.113    
        7.025       6.900       6.786       6.716       6.596       6.388       6.044       5.722       5.572       5.440    
        5.286       5.088       4.875       4.688       4.453       4.195       4.007       3.782       3.392       2.962    
        2.654       2.401       2.183       1.959       1.723       1.437       1.155      0.8382      0.4142       0.000    
  39    10.00       9.925       9.864       9.809       9.735       9.635       9.526       9.420       9.274       9.085    
        8.923       8.808       8.669       8.501       8.253       7.969       7.705       7.406       7.191       7.084    
        6.946       6.799       6.713       6.645       6.526       6.246       5.906       5.719       5.585       5.449    
        5.275       5.089       4.885       4.698       4.521       4.311       4.063       3.791       3.407       3.007    
        2.681       2.420       2.249       2.061       1.795       1.513       1.226      0.8724      0.4088       0.000    
  40    10.00       9.917       9.858       9.802       9.725       9.621       9.515       9.409       9.280       9.121    
        8.988       8.885       8.708       8.439       8.124       7.838       7.559       7.305       7.151       7.013    
        6.851       6.725       6.655       6.566       6.408       6.157       5.933       5.750       5.600       5.459    
        5.289       5.091       4.899       4.744       4.589       4.376       4.091       3.807       3.416       2.987    
        2.683       2.476       2.287       2.126       1.847       1.537       1.276      0.8749      0.4073       0.000    
  41    10.00       9.924       9.856       9.788       9.704       9.622       9.533       9.435       9.306       9.161    
        9.033       8.905       8.670       8.346       8.022       7.756       7.483       7.242       7.090       6.938    
        6.776       6.667       6.587       6.482       6.319       6.134       5.985       5.809       5.622       5.457    
        5.295       5.117       4.934       4.800       4.635       4.423       4.138       3.745       3.298       2.968    
        2.747       2.547       2.351       2.128       1.837       1.541       1.317      0.9322      0.4227       0.000    
  42    10.00       9.923       9.846       9.786       9.724       9.648       9.553       9.441       9.331       9.219    
        9.051       8.827       8.553       8.243       7.942       7.700       7.433       7.200       7.035       6.864    
        6.713       6.616       6.527       6.431       6.287       6.160       6.035       5.834       5.625       5.478    
        5.346       5.152       4.957       4.826       4.674       4.448       4.097       3.635       3.226       2.980    
        2.813       2.635       2.385       2.088       1.809       1.577       1.345      0.9832      0.4851       0.000    
  43    10.00       9.916       9.851       9.799       9.750       9.677       9.583       9.476       9.352       9.174    
        8.955       8.723       8.466       8.144       7.874       7.651       7.411       7.175       6.967       6.807    
        6.672       6.575       6.501       6.423       6.301       6.171       6.044       5.836       5.654       5.547    
        5.386       5.177       4.989       4.855       4.678       4.385       3.980       3.542       3.243       3.055    
        2.878       2.672       2.367       2.061       1.815       1.591       1.391      0.9971      0.4556       0.000    
  44    10.00       9.916       9.859       9.812       9.753       9.697       9.619       9.475       9.289       9.082    
        8.897       8.663       8.353       8.084       7.869       7.611       7.349       7.098       6.892       6.752    
        6.654       6.572       6.498       6.418       6.313       6.180       6.009       5.837       5.715       5.587    
        5.443       5.261       5.046       4.841       4.625       4.297       3.872       3.512       3.281       3.099    
        2.920       2.677       2.382       2.117       1.854       1.614       1.368      0.9002      0.4140       0.000    
  45    10.00       9.925       9.872       9.811       9.753       9.705       9.576       9.403       9.214       9.036    
        8.884       8.570       8.248       8.052       7.820       7.534       7.248       7.017       6.851       6.740    
        6.666       6.589       6.508       6.414       6.298       6.168       6.023       5.892       5.784       5.651    
        5.484       5.296       5.074       4.816       4.558       4.205       3.806       3.523       3.348       3.160    
        2.921       2.643       2.389       2.149       1.915       1.676       1.278      0.8000      0.4026       0.000    
  46    10.00       9.939       9.882       9.811       9.745       9.648       9.507       9.376       9.218       9.027    
        8.774       8.475       8.217       7.968       7.720       7.443       7.177       7.007       6.871       6.766    
        6.691       6.616       6.513       6.396       6.284       6.174       6.060       5.940       5.832       5.714    
        5.564       5.365       5.114       4.807       4.438       4.072       3.778       3.577       3.394       3.199    
        2.917       2.620       2.368       2.177       1.954       1.643       1.190      0.7641      0.3767       0.000    
  47    10.00       9.951       9.896       9.825       9.711       9.584       9.463       9.361       9.215       8.963    
        8.659       8.385       8.161       7.953       7.690       7.389       7.154       6.993       6.884       6.796    
        6.715       6.627       6.518       6.395       6.286       6.200       6.106       5.988       5.863       5.748    
        5.617       5.450       5.116       4.687       4.327       4.064       3.818       3.645       3.483       3.213    
        2.869       2.555       2.326       2.195       1.948       1.567       1.125      0.7370      0.3723       0.000    
  48    10.00       9.955       9.900       9.794       9.676       9.566       9.445       9.341       9.193       8.909    
        8.578       8.348       8.164       7.910       7.603       7.332       7.155       6.993       6.885       6.816    
        6.733       6.628       6.511       6.398       6.308       6.240       6.156       6.025       5.881       5.756    
        5.620       5.418       5.071       4.715       4.394       4.104       3.884       3.707       3.500       3.156    
        2.786       2.544       2.363       2.130       1.806       1.468       1.089      0.7422      0.3929       0.000    
  49    10.00       9.953       9.868       9.766       9.678       9.560       9.442       9.332       9.145       8.844    
        8.548       8.329       8.098       7.841       7.610       7.357       7.112       6.961       6.895       6.830    
        6.752       6.630       6.495       6.397       6.329       6.278       6.182       6.030       5.879       5.766    
        5.617       5.353       5.047       4.795       4.526       4.205       3.921       3.703       3.459       3.090    
        2.793       2.580       2.330       1.994       1.707       1.402       1.071      0.7545      0.3842       0.000    
  50    10.00       9.941       9.847       9.754       9.683       9.573       9.442       9.302       9.100       8.863    
        8.562       8.268       8.029       7.824       7.638       7.354       7.075       6.961       6.903       6.840    
        6.765       6.628       6.483       6.395       6.341       6.294       6.186       6.023       5.879       5.763    
        5.601       5.324       5.088       4.872       4.581       4.262       3.973       3.684       3.333       3.007    
        2.849       2.626       2.260       1.922       1.682       1.391       1.104      0.7369      0.3027       0.000    

 HEAD WILL BE SAVED ON UNIT   51 AT END OF TIME STEP  34, STRESS PERIOD    2

 DRAWDOWN WILL BE SAVED ON UNIT   52 AT END OF TIME STEP  34, STRESS PERIOD    2
1
  VOLUMETRIC BUDGET FOR ENTIRE MODEL AT END OF TIME STEP 34 IN STRESS PERIOD   2
  ------------------------------------------------------------------------------

     CUMULATIVE VOLUMES      L**3       RATES FOR THIS TIME STEP      L**3/T
     ------------------                 ------------------------

           IN:                                      IN:
           ---                                      ---
             STORAGE =       16880.2949               STORAGE =         485.4159
       CONSTANT HEAD =       19014.5977         CONSTANT HEAD =         554.2460
               WELLS =           0.0000                 WELLS =           0.0000

            TOTAL IN =       35894.8906              TOTAL IN =        1039.6619

          OUT:                                     OUT:
          ----                                     ----
             STORAGE =       9.3745E-03               STORAGE =           0.0000
       CONSTANT HEAD =       18894.8809         CONSTANT HEAD =         539.6622
               WELLS =       17000.0000                 WELLS =         500.0000

           TOTAL OUT =       35894.8906             TOTAL OUT =        1039.6621

            IN - OUT =           0.0000              IN - OUT =      -2.4414E-04

 PERCENT DISCREPANCY =           0.00     PERCENT DISCREPANCY =           0.00






          TIME SUMMARY AT END OF TIME STEP  34 IN STRESS PERIOD    2
                    SECONDS     MINUTES      HOURS       DAYS        YEARS
                    -----------------------------------------------------------
   TIME STEP LENGTH  86400.      1440.0      24.000      1.0000     2.73785E-03
 STRESS PERIOD TIME 2.93760E+06  48960.      816.00      34.000     9.30869E-02
         TOTAL TIME 3.02400E+06  50400.      840.00      35.000     9.58248E-02
1
 
 SOLVING FOR HEAD 

 OUTPUT CONTROL FOR STRESS PERIOD    2   TIME STEP  35
    SAVE HEAD FOR ALL LAYERS
    SAVE DRAWDOWN FOR ALL LAYERS
    SAVE BUDGET
    PRINT HEAD FOR ALL LAYERS
    PRINT BUDGET
 UBDSV1 SAVING "         STORAGE" ON UNIT  53 AT TIME STEP 35, STRESS PERIOD   2
 UBDSV2 SAVING "   CONSTANT HEAD" ON UNIT  53 AT TIME STEP 35, STRESS PERIOD   2
 UBDSV1 SAVING "FLOW RIGHT FACE " ON UNIT  53 AT TIME STEP 35, STRESS PERIOD   2
 UBDSV1 SAVING "FLOW FRONT FACE " ON UNIT  53 AT TIME STEP 35, STRESS PERIOD   2
1
              HEAD IN LAYER   1 AT END OF TIME STEP  35 IN STRESS PERIOD    2
  ---------------------------------------------------------------------------

            1           2           3           4           5           6           7           8           9          10
           11          12          13          14          15          16          17          18          19          20
           21          22          23          24          25          26          27          28          29          30
           31          32          33          34          35          36          37          38          39          40
           41          42          43          44          45          46          47          48          49          50
 ........................................................................................................................
   1    10.00       9.959       9.902       9.846       9.799       9.741       9.685       9.626       9.547       9.482    
        9.444       9.405       9.362       9.320       9.251       9.176       9.094       9.030       9.001       8.968    
        8.928       8.894       8.858       8.813       8.750       8.639       8.506       8.376       8.227       8.078    
        7.866       7.530       7.135       6.718       6.251       5.820       5.455       5.115       4.651       4.147    
        3.718       3.294       2.709       2.153       1.765       1.375       1.049      0.8377      0.5555       0.000    
   2    10.00       9.958       9.907       9.851       9.801       9.748       9.685       9.608       9.532       9.482    
        9.447       9.413       9.380       9.327       9.248       9.171       9.096       9.033       9.001       8.965    
        8.924       8.898       8.869       8.821       8.749       8.644       8.510       8.374       8.234       8.085    
        7.856       7.510       7.094       6.624       6.153       5.737       5.410       5.077       4.607       4.134    
        3.701       3.191       2.662       2.222       1.836       1.473       1.100      0.7956      0.4247       0.000    
   3    10.00       9.954       9.906       9.854       9.803       9.742       9.665       9.591       9.542       9.497    
        9.457       9.427       9.394       9.344       9.266       9.169       9.090       9.038       8.999       8.962    
        8.928       8.900       8.871       8.812       8.734       8.628       8.501       8.399       8.251       8.075    
        7.780       7.379       6.938       6.482       6.047       5.659       5.367       5.024       4.516       4.057    
        3.696       3.230       2.742       2.320       1.918       1.551       1.110      0.6826      0.3002       0.000    
   4    10.00       9.958       9.908       9.852       9.789       9.719       9.645       9.590       9.549       9.506    
        9.471       9.446       9.410       9.356       9.284       9.178       9.090       9.042       9.000       8.965    
        8.927       8.893       8.858       8.794       8.716       8.613       8.490       8.376       8.261       8.041    
        7.662       7.173       6.703       6.354       6.028       5.651       5.275       4.841       4.412       4.076    
        3.754       3.341       2.852       2.434       2.012       1.568       1.059      0.6063      0.2824       0.000    
   5    10.00       9.955       9.903       9.838       9.773       9.708       9.643       9.597       9.554       9.517    
        9.487       9.460       9.418       9.355       9.271       9.175       9.100       9.047       9.004       8.956    
        8.912       8.878       8.832       8.767       8.694       8.577       8.455       8.357       8.242       7.963    
        7.469       6.935       6.547       6.281       5.985       5.603       5.175       4.747       4.441       4.155    
        3.863       3.435       2.925       2.559       2.130       1.548      0.9637      0.5596      0.2815       0.000    
   6    10.00       9.944       9.882       9.832       9.771       9.703       9.648       9.606       9.562       9.528    
        9.500       9.467       9.413       9.340       9.269       9.189       9.108       9.043       8.988       8.933    
        8.894       8.858       8.816       8.747       8.639       8.528       8.436       8.330       8.139       7.741    
        7.194       6.713       6.416       6.215       5.976       5.557       5.091       4.748       4.523       4.272    
        3.987       3.599       3.091       2.636       2.104       1.481      0.8641      0.4921      0.2749       0.000    
   7    10.00       9.928       9.870       9.821       9.762       9.714       9.662       9.618       9.581       9.545    
        9.508       9.461       9.396       9.325       9.260       9.195       9.105       9.018       8.959       8.914    
        8.876       8.836       8.793       8.702       8.592       8.502       8.402       8.234       7.916       7.412    
        6.895       6.519       6.334       6.177       5.874       5.462       5.153       4.852       4.605       4.429    
        4.140       3.738       3.194       2.604       1.949       1.233      0.7242      0.4996      0.2530       0.000    
   8    10.00       9.924       9.870       9.817       9.765       9.722       9.677       9.635       9.599       9.564    
        9.512       9.443       9.375       9.313       9.252       9.172       9.066       8.984       8.939       8.896    
        8.851       8.817       8.748       8.652       8.553       8.448       8.262       7.998       7.566       7.132    
        6.744       6.445       6.303       6.111       5.772       5.453       5.196       4.974       4.774       4.565    
        4.265       3.768       3.138       2.466       1.720       1.113      0.7663      0.4901      0.2258       0.000    
   9    10.00       9.927       9.867       9.815       9.778       9.741       9.698       9.657       9.616       9.576    
        9.510       9.426       9.356       9.293       9.220       9.130       9.035       8.962       8.915       8.870    
        8.829       8.775       8.680       8.591       8.491       8.346       8.080       7.685       7.259       6.947    
        6.640       6.417       6.258       6.004       5.691       5.443       5.259       5.087       4.915       4.687    
        4.314       3.796       3.125       2.374       1.687       1.153      0.7817      0.4860      0.2409       0.000    
  10    10.00       9.926       9.865       9.822       9.789       9.754       9.716       9.680       9.632       9.570    
        9.490       9.406       9.337       9.269       9.193       9.089       8.993       8.935       8.893       8.847    
        8.805       8.718       8.615       8.518       8.382       8.168       7.776       7.347       7.008       6.772    
        6.587       6.402       6.192       5.931       5.662       5.471       5.330       5.188       4.995       4.730    
        4.329       3.760       3.043       2.371       1.827       1.320      0.8369      0.5160      0.2719       0.000    
  11    10.00       9.916       9.869       9.834       9.800       9.769       9.736       9.688       9.621       9.552    
        9.472       9.390       9.324       9.234       9.130       9.040       8.970       8.915       8.873       8.823    
        8.748       8.637       8.492       8.349       8.116       7.799       7.451       7.161       6.885       6.711    
        6.555       6.317       6.077       5.884       5.702       5.557       5.416       5.232       5.004       4.694    
        4.317       3.813       3.085       2.471       1.987       1.500      0.9638      0.5109      0.2051       0.000    
  12    10.00       9.924       9.877       9.840       9.812       9.780       9.743       9.679       9.600       9.529    
        9.454       9.372       9.285       9.176       9.091       9.013       8.941       8.894       8.841       8.766    
        8.624       8.434       8.233       8.022       7.733       7.489       7.300       7.006       6.775       6.633    
        6.466       6.247       6.053       5.887       5.765       5.634       5.465       5.257       4.984       4.657    
        4.284       3.791       3.123       2.573       2.134       1.607       1.013      0.4829      0.1606       0.000    
  13    10.00       9.940       9.897       9.857       9.821       9.785       9.731       9.653       9.572       9.502    
        9.423       9.342       9.250       9.139       9.041       8.963       8.912       8.853       8.779       8.608    
        8.351       8.121       7.901       7.638       7.411       7.297       7.067       6.800       6.677       6.556    
        6.375       6.183       6.041       5.922       5.820       5.700       5.504       5.244       4.975       4.636    
        4.264       3.760       3.070       2.555       2.148       1.572      0.9435      0.4366      0.1262       0.000    
  14    10.00       9.956       9.918       9.875       9.833       9.777       9.700       9.618       9.546       9.466    
        9.388       9.313       9.205       9.082       8.993       8.930       8.849       8.761       8.591       8.292    
        8.017       7.809       7.519       7.301       7.195       7.068       6.832       6.673       6.554       6.438    
        6.282       6.157       6.068       5.966       5.858       5.733       5.514       5.227       4.938       4.593    
        4.192       3.584       2.934       2.518       2.019       1.467      0.9309      0.3990      0.1027       0.000    
  15    10.00       9.966       9.927       9.884       9.836       9.753       9.658       9.586       9.514       9.438    
        9.379       9.292       9.151       9.017       8.936       8.830       8.722       8.610       8.325       7.973    
        7.742       7.448       7.179       7.094       7.027       6.863       6.671       6.517       6.429       6.342    
        6.242       6.166       6.093       6.007       5.892       5.737       5.484       5.158       4.853       4.534    
        4.100       3.507       2.943       2.384       1.781       1.287      0.8007      0.3517      0.1055       0.000    
  16    10.00       9.975       9.937       9.887       9.812       9.710       9.629       9.571       9.506       9.428    
        9.348       9.227       9.065       8.936       8.821       8.696       8.620       8.399       7.984       7.656    
        7.419       7.126       7.022       6.968       6.846       6.640       6.485       6.409       6.375       6.312    
        6.236       6.173       6.115       6.024       5.885       5.694       5.391       5.093       4.851       4.506    
        4.011       3.372       2.725       2.104       1.593       1.104      0.6824      0.3340      0.1126       0.000    
  17    10.00       9.975       9.935       9.870       9.777       9.676       9.608       9.555       9.484       9.397    
        9.267       9.113       8.968       8.827       8.684       8.563       8.382       8.010       7.617       7.385    
        7.151       6.966       6.884       6.765       6.575       6.420       6.376       6.362       6.337       6.280    
        6.219       6.169       6.116       6.033       5.839       5.576       5.314       5.100       4.868       4.434    
        3.773       3.123       2.506       1.898       1.362      0.8932      0.5721      0.2988      0.1227       0.000    
  18    10.00       9.969       9.923       9.846       9.730       9.650       9.596       9.524       9.443       9.324    
        9.168       9.031       8.884       8.697       8.509       8.308       8.042       7.659       7.361       7.155    
        6.961       6.804       6.679       6.510       6.379       6.335       6.322       6.315       6.285       6.241    
        6.201       6.159       6.097       5.960       5.758       5.532       5.307       5.116       4.791       4.211    
        3.536       2.845       2.189       1.690       1.264      0.8374      0.4914      0.2471      0.1184       0.000    
  19    10.00       9.962       9.912       9.800       9.685       9.638       9.579       9.491       9.391       9.264    
        9.121       8.992       8.782       8.498       8.273       8.065       7.739       7.385       7.180       7.020    
        6.819       6.629       6.491       6.359       6.293       6.276       6.269       6.248       6.216       6.196    
        6.172       6.134       6.045       5.909       5.735       5.513       5.307       5.032       4.479       3.880    
        3.336       2.623       2.000       1.604       1.181      0.7555      0.4436      0.2516      0.1288       0.000    
  20    10.00       9.954       9.869       9.755       9.672       9.620       9.557       9.463       9.353       9.238    
        9.091       8.895       8.581       8.297       8.095       7.835       7.507       7.311       7.123       6.900    
        6.678       6.507       6.363       6.269       6.221       6.196       6.166       6.157       6.140       6.138    
        6.128       6.093       5.999       5.867       5.687       5.492       5.234       4.735       4.138       3.660    
        3.073       2.417       1.951       1.569       1.142      0.6702      0.3873      0.2618      0.1349       0.000    
  21    10.00       9.924       9.833       9.738       9.657       9.603       9.535       9.426       9.317       9.208    
        9.013       8.714       8.392       8.175       7.947       7.671       7.425       7.238       7.011       6.774    
        6.560       6.392       6.265       6.167       6.100       6.051       6.035       6.043       6.044       6.056    
        6.064       6.023       5.926       5.797       5.612       5.396       4.994       4.469       3.995       3.414    
        2.858       2.342       1.949       1.562      0.9612      0.5421      0.3919      0.2956      0.1417       0.000    
  22    10.00       9.905       9.796       9.711       9.647       9.583       9.487       9.386       9.290       9.140    
        8.891       8.551       8.292       8.095       7.838       7.554       7.316       7.116       6.907       6.682    
        6.468       6.290       6.123       5.971       5.886       5.867       5.884       5.900       5.936       5.958    
        5.971       5.924       5.841       5.705       5.514       5.298       4.884       4.372       3.753       3.192    
        2.790       2.377       1.904       1.258      0.7488      0.5402      0.4106      0.2733      0.1011       0.000    
  23    10.00       9.877       9.772       9.705       9.637       9.542       9.437       9.362       9.240       9.052    
        8.759       8.466       8.280       8.034       7.700       7.414       7.226       7.063       6.866       6.623    
        6.398       6.190       5.950       5.668       5.462       5.506       5.641       5.731       5.809       5.860    
        5.874       5.838       5.756       5.629       5.448       5.200       4.780       4.148       3.528       3.133    
        2.762       2.242       1.565       1.012      0.7364      0.5506      0.3938      0.2323      9.2415E-02   0.000    
  24    10.00       9.859       9.782       9.703       9.606       9.507       9.427       9.343       9.225       8.975    
        8.698       8.482       8.271       7.944       7.574       7.368       7.209       7.048       6.825       6.596    
        6.396       6.133       5.748       5.213       4.559       4.831       5.235       5.515       5.679       5.761    
        5.791       5.760       5.690       5.550       5.350       5.043       4.515       3.918       3.452       3.039    
        2.585       2.007       1.403      0.9811      0.7375      0.5362      0.3591      0.2516      0.1235       0.000    
  25    10.00       9.875       9.797       9.696       9.596       9.505       9.424       9.347       9.171       8.926    
        8.713       8.494       8.217       7.855       7.582       7.398       7.218       7.025       6.821       6.624    
        6.395       6.143       5.594       4.574       2.752       4.117       4.859       5.299       5.568       5.700    
        5.736       5.710       5.629       5.440       5.172       4.762       4.268       3.800       3.400       2.916    
        2.368       1.816       1.308      0.9721      0.7643      0.5571      0.3783      0.2634      0.1639       0.000    
  26    10.00       9.892       9.816       9.710       9.602       9.519       9.433       9.319       9.144       8.974    
        8.774       8.474       8.134       7.840       7.634       7.456       7.248       7.011       6.813       6.648    
        6.458       6.210       5.739       4.992       4.162       4.522       4.975       5.305       5.553       5.689    
        5.708       5.670       5.547       5.324       5.030       4.640       4.097       3.654       3.282       2.698    
        2.081       1.598       1.295       1.061      0.8241      0.6013      0.4123      0.2861      0.1672       0.000    
  27    10.00       9.914       9.820       9.725       9.632       9.533       9.437       9.321       9.176       9.020    
        8.767       8.428       8.130       7.887       7.715       7.510       7.240       6.993       6.839       6.705    
        6.557       6.330       5.975       5.538       5.098       5.078       5.255       5.467       5.644       5.710    
        5.696       5.642       5.500       5.258       4.916       4.391       3.885       3.524       2.964       2.355    
        1.877       1.568       1.340       1.135      0.9009      0.6563      0.4478      0.3149      0.1986       0.000    
  28    10.00       9.920       9.843       9.756       9.664       9.560       9.453       9.341       9.215       9.032    
        8.734       8.438       8.178       7.941       7.759       7.558       7.338       7.103       6.888       6.750    
        6.633       6.472       6.245       5.933       5.669       5.518       5.559       5.689       5.742       5.744    
        5.698       5.615       5.441       5.138       4.690       4.152       3.723       3.220       2.642       2.212    
        1.874       1.611       1.388       1.175      0.9466      0.7161      0.5080      0.3585      0.2049       0.000    
  29    10.00       9.925       9.850       9.782       9.692       9.597       9.493       9.378       9.238       8.992    
        8.714       8.462       8.216       8.016       7.809       7.596       7.397       7.210       7.007       6.827    
        6.702       6.579       6.431       6.248       6.000       5.880       5.867       5.869       5.859       5.792    
        5.697       5.543       5.337       4.947       4.411       3.947       3.520       3.002       2.542       2.229    
        1.954       1.667       1.414       1.210       1.004      0.7572      0.5368      0.3745      0.2077       0.000    
  30    10.00       9.935       9.872       9.813       9.732       9.638       9.544       9.413       9.225       9.001    
        8.719       8.445       8.243       8.043       7.846       7.655       7.495       7.324       7.128       6.938    
        6.786       6.683       6.559       6.436       6.302       6.187       6.140       6.047       5.967       5.839    
        5.656       5.402       5.122       4.719       4.308       3.879       3.425       2.942       2.596       2.313    
        1.988       1.700       1.480       1.247       1.002      0.7834      0.5720      0.3977      0.2235       0.000    
  31    10.00       9.948       9.897       9.839       9.779       9.703       9.596       9.432       9.217       8.980    
        8.708       8.463       8.279       8.084       7.901       7.725       7.568       7.434       7.237       7.048    
        6.911       6.801       6.703       6.604       6.523       6.415       6.301       6.192       6.042       5.842    
        5.552       5.239       4.959       4.641       4.253       3.802       3.345       2.953       2.710       2.440    
        2.079       1.763       1.512       1.276       1.048      0.8240      0.6061      0.4185      0.2167       0.000    
  32    10.00       9.955       9.918       9.868       9.810       9.738       9.624       9.434       9.238       9.013    
        8.733       8.507       8.333       8.132       7.937       7.792       7.657       7.500       7.342       7.158    
        7.014       6.899       6.805       6.710       6.621       6.537       6.404       6.256       6.053       5.778    
        5.455       5.155       4.875       4.575       4.196       3.792       3.435       3.102       2.824       2.514    
        2.180       1.868       1.604       1.333       1.086      0.8958      0.6681      0.4105      0.1833       0.000    
  33    10.00       9.962       9.933       9.890       9.831       9.754       9.603       9.416       9.258       9.056    
        8.800       8.586       8.380       8.152       7.979       7.860       7.743       7.582       7.410       7.249    
        7.091       6.970       6.851       6.751       6.675       6.591       6.434       6.220       6.002       5.744    
        5.425       5.162       4.873       4.510       4.159       3.804       3.515       3.252       2.935       2.594    
        2.306       2.011       1.722       1.442       1.181      0.9696      0.7145      0.4123      0.1792       0.000    
  34    10.00       9.968       9.946       9.910       9.832       9.717       9.578       9.448       9.284       9.084    
        8.866       8.631       8.398       8.175       8.036       7.939       7.813       7.658       7.463       7.305    
        7.159       7.006       6.880       6.784       6.706       6.588       6.399       6.197       5.971       5.669    
        5.389       5.180       4.894       4.545       4.202       3.877       3.605       3.343       3.017       2.710    
        2.453       2.170       1.854       1.575       1.311       1.068      0.7640      0.4638      0.2432       0.000    
  35    10.00       9.974       9.946       9.893       9.798       9.685       9.585       9.472       9.339       9.123    
        8.881       8.645       8.408       8.227       8.105       8.003       7.867       7.701       7.509       7.321    
        7.160       7.015       6.886       6.795       6.709       6.589       6.387       6.149       5.882       5.569    
        5.361       5.140       4.854       4.600       4.315       3.975       3.677       3.459       3.153       2.827    
        2.580       2.290       1.973       1.698       1.424       1.158      0.8755      0.5802      0.2870       0.000    
  36    10.00       9.967       9.922       9.865       9.776       9.671       9.587       9.489       9.345       9.134    
        8.869       8.616       8.449       8.314       8.194       8.062       7.900       7.729       7.520       7.265    
        7.089       6.978       6.868       6.791       6.706       6.554       6.325       6.064       5.738       5.461    
        5.288       5.109       4.866       4.623       4.387       4.085       3.789       3.559       3.287       2.931    
        2.660       2.337       2.020       1.811       1.545       1.249      0.9658      0.6572      0.3215       0.000    
  37    10.00       9.949       9.901       9.844       9.756       9.664       9.569       9.474       9.341       9.093    
        8.816       8.624       8.527       8.397       8.246       8.112       7.909       7.694       7.421       7.158    
        7.047       6.954       6.848       6.762       6.660       6.472       6.240       5.895       5.600       5.425    
        5.278       5.090       4.852       4.663       4.422       4.138       3.907       3.687       3.381       2.990    
        2.635       2.332       2.112       1.895       1.628       1.347       1.064      0.7248      0.3979       0.000    
  38    10.00       9.942       9.880       9.819       9.742       9.654       9.552       9.450       9.295       9.062    
        8.855       8.704       8.581       8.460       8.295       8.072       7.838       7.584       7.277       7.106    
        7.018       6.893       6.780       6.710       6.590       6.383       6.040       5.720       5.570       5.438    
        5.285       5.087       4.874       4.687       4.452       4.195       4.006       3.782       3.392       2.962    
        2.654       2.401       2.183       1.959       1.723       1.437       1.155      0.8382      0.4142       0.000    
  39    10.00       9.925       9.864       9.809       9.735       9.634       9.525       9.419       9.273       9.082    
        8.920       8.805       8.665       8.496       8.248       7.964       7.700       7.401       7.186       7.079    
        6.940       6.794       6.709       6.640       6.522       6.243       5.904       5.718       5.583       5.448    
        5.274       5.088       4.885       4.698       4.521       4.310       4.063       3.791       3.407       3.007    
        2.681       2.420       2.249       2.061       1.795       1.512       1.226      0.8724      0.4088       0.000    
  40    10.00       9.917       9.858       9.802       9.724       9.620       9.514       9.408       9.278       9.119    
        8.985       8.882       8.705       8.435       8.120       7.835       7.555       7.301       7.147       7.009    
        6.847       6.722       6.652       6.563       6.405       6.155       5.931       5.748       5.599       5.458    
        5.288       5.090       4.899       4.743       4.589       4.376       4.090       3.806       3.416       2.987    
        2.682       2.476       2.287       2.126       1.847       1.537       1.276      0.8749      0.4073       0.000    
  41    10.00       9.924       9.855       9.788       9.704       9.621       9.532       9.434       9.305       9.160    
        9.031       8.903       8.668       8.344       8.019       7.753       7.480       7.239       7.087       6.935    
        6.773       6.664       6.585       6.479       6.317       6.133       5.984       5.807       5.621       5.456    
        5.294       5.116       4.934       4.799       4.635       4.423       4.137       3.745       3.298       2.968    
        2.747       2.547       2.351       2.128       1.837       1.541       1.317      0.9322      0.4227       0.000    
  42    10.00       9.923       9.845       9.785       9.724       9.648       9.552       9.440       9.330       9.217    
        9.050       8.825       8.551       8.241       7.940       7.698       7.430       7.198       7.033       6.861    
        6.711       6.614       6.525       6.430       6.285       6.159       6.034       5.833       5.624       5.477    
        5.345       5.151       4.956       4.826       4.674       4.448       4.097       3.635       3.225       2.980    
        2.813       2.635       2.385       2.088       1.809       1.577       1.345      0.9832      0.4851       0.000    
  43    10.00       9.916       9.851       9.799       9.750       9.676       9.582       9.475       9.351       9.173    
        8.953       8.722       8.465       8.143       7.873       7.649       7.409       7.173       6.965       6.805    
        6.671       6.573       6.499       6.421       6.300       6.170       6.043       5.835       5.653       5.546    
        5.386       5.176       4.989       4.855       4.677       4.384       3.979       3.542       3.243       3.055    
        2.877       2.672       2.367       2.061       1.815       1.591       1.391      0.9971      0.4556       0.000    
  44    10.00       9.916       9.859       9.812       9.753       9.697       9.619       9.475       9.288       9.081    
        8.896       8.662       8.352       8.082       7.868       7.610       7.347       7.097       6.891       6.751    
        6.653       6.571       6.497       6.417       6.312       6.179       6.008       5.836       5.714       5.586    
        5.442       5.260       5.045       4.841       4.625       4.297       3.872       3.512       3.281       3.099    
        2.920       2.677       2.382       2.117       1.854       1.614       1.368      0.9002      0.4140       0.000    
  45    10.00       9.925       9.872       9.811       9.753       9.704       9.575       9.403       9.213       9.036    
        8.883       8.569       8.247       8.051       7.819       7.533       7.247       7.016       6.849       6.739    
        6.665       6.588       6.507       6.413       6.297       6.167       6.022       5.891       5.784       5.650    
        5.484       5.295       5.074       4.816       4.557       4.205       3.806       3.523       3.347       3.160    
        2.921       2.643       2.389       2.149       1.915       1.676       1.278      0.7999      0.4026       0.000    
  46    10.00       9.939       9.882       9.811       9.744       9.648       9.507       9.376       9.217       9.027    
        8.773       8.474       8.216       7.967       7.720       7.442       7.177       7.006       6.870       6.765    
        6.690       6.615       6.512       6.395       6.283       6.173       6.060       5.939       5.831       5.713    
        5.563       5.364       5.113       4.807       4.438       4.072       3.778       3.577       3.394       3.199    
        2.917       2.620       2.368       2.177       1.954       1.643       1.190      0.7641      0.3767       0.000    
  47    10.00       9.951       9.896       9.825       9.711       9.584       9.463       9.360       9.214       8.963    
        8.659       8.385       8.160       7.952       7.689       7.388       7.153       6.992       6.883       6.795    
        6.714       6.626       6.517       6.394       6.285       6.199       6.105       5.987       5.862       5.747    
        5.616       5.449       5.116       4.687       4.327       4.064       3.817       3.645       3.483       3.213    
        2.869       2.555       2.326       2.195       1.948       1.567       1.125      0.7370      0.3723       0.000    
  48    10.00       9.955       9.900       9.794       9.676       9.566       9.445       9.341       9.193       8.909    
        8.577       8.348       8.164       7.909       7.603       7.331       7.154       6.992       6.884       6.815    
        6.732       6.627       6.510       6.397       6.308       6.239       6.156       6.024       5.880       5.756    
        5.619       5.418       5.070       4.715       4.394       4.104       3.884       3.707       3.500       3.156    
        2.786       2.544       2.363       2.130       1.806       1.468       1.089      0.7422      0.3929       0.000    
  49    10.00       9.953       9.868       9.766       9.677       9.559       9.442       9.331       9.145       8.844    
        8.548       8.328       8.098       7.840       7.609       7.356       7.111       6.960       6.894       6.829    
        6.751       6.629       6.494       6.396       6.328       6.277       6.181       6.030       5.878       5.765    
        5.617       5.353       5.046       4.794       4.525       4.205       3.921       3.702       3.459       3.090    
        2.793       2.580       2.330       1.994       1.707       1.402       1.071      0.7545      0.3842       0.000    
  50    10.00       9.941       9.847       9.754       9.683       9.572       9.442       9.302       9.100       8.862    
        8.562       8.268       8.028       7.823       7.637       7.353       7.074       6.960       6.902       6.839    
        6.764       6.627       6.482       6.394       6.340       6.293       6.185       6.022       5.878       5.763    
        5.601       5.323       5.087       4.871       4.580       4.261       3.973       3.683       3.333       3.007    
        2.849       2.626       2.260       1.922       1.682       1.391       1.104      0.7369      0.3027       0.000    

 HEAD WILL BE SAVED ON UNIT   51 AT END OF TIME STEP  35, STRESS PERIOD    2

 DRAWDOWN WILL BE SAVED ON UNIT   52 AT END OF TIME STEP  35, STRESS PERIOD    2
1
  VOLUMETRIC BUDGET FOR ENTIRE MODEL AT END OF TIME STEP 35 IN STRESS PERIOD   2
  ------------------------------------------------------------------------------

     CUMULATIVE VOLUMES      L**3       RATES FOR THIS TIME STEP      L**3/T
     ------------------                 ------------------------

           IN:                                      IN:
           ---                                      ---
             STORAGE =       17364.4062               STORAGE =         484.1112
       CONSTANT HEAD =       19570.1133         CONSTANT HEAD =         555.5150
               WELLS =           0.0000                 WELLS =           0.0000

            TOTAL IN =       36934.5195              TOTAL IN =        1039.6262

          OUT:                                     OUT:
          ----                                     ----
             STORAGE =       9.3745E-03               STORAGE =           0.0000
       CONSTANT HEAD =       19434.5078         CONSTANT HEAD =         539.6263
               WELLS =       17500.0000                 WELLS =         500.0000

           TOTAL OUT =       36934.5156             TOTAL OUT =        1039.6262

            IN - OUT =       3.9063E-03              IN - OUT =           0.0000

 PERCENT DISCREPANCY =           0.00     PERCENT DISCREPANCY =           0.00






          TIME SUMMARY AT END OF TIME STEP  35 IN STRESS PERIOD    2
                    SECONDS     MINUTES      HOURS       DAYS        YEARS
                    -----------------------------------------------------------
   TIME STEP LENGTH  86400.      1440.0      24.000      1.0000     2.73785E-03
 STRESS PERIOD TIME 3.02400E+06  50400.      840.00      35.000     9.58248E-02
         TOTAL TIME 3.11040E+06  51840.      864.00      36.000     9.85626E-02
1
 
 SOLVING FOR HEAD 

 OUTPUT CONTROL FOR STRESS PERIOD    2   TIME STEP  36
    SAVE HEAD FOR ALL LAYERS
    SAVE DRAWDOWN FOR ALL LAYERS
    SAVE BUDGET
    PRINT HEAD FOR ALL LAYERS
    PRINT BUDGET
 UBDSV1 SAVING "         STORAGE" ON UNIT  53 AT TIME STEP 36, STRESS PERIOD   2
 UBDSV2 SAVING "   CONSTANT HEAD" ON UNIT  53 AT TIME STEP 36, STRESS PERIOD   2
 UBDSV1 SAVING "FLOW RIGHT FACE " ON UNIT  53 AT TIME STEP 36, STRESS PERIOD   2
 UBDSV1 SAVING "FLOW FRONT FACE " ON UNIT  53 AT TIME STEP 36, STRESS PERIOD   2
1
              HEAD IN LAYER   1 AT END OF TIME STEP  36 IN STRESS PERIOD    2
  ---------------------------------------------------------------------------

            1           2           3           4           5           6           7           8           9          10
           11          12          13          14          15          16          17          18          19          20
           21          22          23          24          25          26          27          28          29          30
           31          32          33          34          35          36          37          38          39          40
           41          42          43          44          45          46          47          48          49          50
 ........................................................................................................................
   1    10.00       9.958       9.902       9.845       9.798       9.741       9.684       9.625       9.546       9.480    
        9.442       9.403       9.360       9.318       9.249       9.174       9.092       9.027       8.998       8.966    
        8.926       8.891       8.855       8.810       8.747       8.637       8.504       8.374       8.225       8.076    
        7.864       7.528       7.133       6.717       6.250       5.819       5.453       5.114       4.650       4.146    
        3.717       3.293       2.708       2.153       1.764       1.375       1.048      0.8375      0.5554       0.000    
   2    10.00       9.958       9.907       9.851       9.800       9.747       9.685       9.607       9.531       9.481    
        9.446       9.411       9.378       9.325       9.246       9.169       9.093       9.030       8.999       8.962    
        8.921       8.895       8.866       8.818       8.746       8.641       8.507       8.372       8.232       8.083    
        7.854       7.508       7.093       6.622       6.151       5.735       5.409       5.075       4.605       4.133    
        3.700       3.190       2.661       2.222       1.836       1.472       1.100      0.7954      0.4246       0.000    
   3    10.00       9.954       9.905       9.854       9.803       9.742       9.664       9.590       9.541       9.496    
        9.456       9.425       9.393       9.343       9.264       9.167       9.088       9.036       8.996       8.960    
        8.926       8.897       8.869       8.809       8.732       8.625       8.499       8.397       8.249       8.073    
        7.778       7.377       6.936       6.480       6.046       5.658       5.366       5.023       4.515       4.056    
        3.695       3.229       2.742       2.319       1.918       1.551       1.110      0.6825      0.3002       0.000    
   4    10.00       9.958       9.908       9.852       9.789       9.718       9.644       9.589       9.548       9.505    
        9.470       9.444       9.408       9.354       9.282       9.176       9.088       9.040       8.997       8.963    
        8.924       8.891       8.855       8.791       8.713       8.610       8.487       8.373       8.259       8.038    
        7.660       7.171       6.700       6.352       6.026       5.649       5.273       4.839       4.411       4.074    
        3.753       3.340       2.851       2.433       2.012       1.567       1.059      0.6061      0.2823       0.000    
   5    10.00       9.955       9.902       9.838       9.773       9.707       9.642       9.596       9.553       9.516    
        9.485       9.458       9.416       9.353       9.269       9.173       9.098       9.045       9.001       8.954    
        8.909       8.875       8.829       8.765       8.691       8.574       8.452       8.354       8.239       7.960    
        7.466       6.932       6.543       6.278       5.983       5.600       5.172       4.744       4.439       4.153    
        3.861       3.434       2.924       2.558       2.129       1.547      0.9635      0.5595      0.2814       0.000    
   6    10.00       9.944       9.882       9.831       9.770       9.702       9.647       9.605       9.561       9.527    
        9.499       9.466       9.412       9.339       9.267       9.187       9.106       9.040       8.985       8.931    
        8.891       8.854       8.813       8.744       8.636       8.524       8.433       8.327       8.136       7.737    
        7.190       6.709       6.412       6.211       5.972       5.554       5.088       4.746       4.520       4.269    
        3.985       3.597       3.090       2.635       2.103       1.480      0.8639      0.4920      0.2749       0.000    
   7    10.00       9.928       9.869       9.820       9.762       9.713       9.661       9.617       9.579       9.543    
        9.507       9.459       9.394       9.323       9.258       9.192       9.103       9.015       8.956       8.911    
        8.872       8.833       8.789       8.699       8.588       8.498       8.399       8.231       7.912       7.408    
        6.890       6.514       6.329       6.172       5.869       5.458       5.149       4.848       4.602       4.427    
        4.138       3.737       3.192       2.603       1.948       1.233      0.7240      0.4995      0.2529       0.000    
   8    10.00       9.923       9.869       9.817       9.764       9.721       9.676       9.634       9.598       9.563    
        9.510       9.441       9.373       9.311       9.250       9.169       9.063       8.981       8.936       8.893    
        8.847       8.813       8.744       8.648       8.549       8.443       8.258       7.993       7.560       7.126    
        6.738       6.439       6.297       6.106       5.766       5.448       5.192       4.970       4.770       4.562    
        4.262       3.766       3.137       2.465       1.720       1.113      0.7662      0.4900      0.2257       0.000    
   9    10.00       9.927       9.866       9.815       9.777       9.740       9.697       9.656       9.615       9.575    
        9.508       9.424       9.354       9.291       9.218       9.127       9.032       8.959       8.911       8.867    
        8.826       8.771       8.675       8.587       8.487       8.341       8.075       7.678       7.252       6.939    
        6.633       6.410       6.251       5.998       5.685       5.437       5.254       5.082       4.911       4.684    
        4.311       3.794       3.124       2.373       1.686       1.152      0.7815      0.4859      0.2409       0.000    
  10    10.00       9.926       9.864       9.822       9.788       9.753       9.715       9.679       9.631       9.569    
        9.488       9.404       9.335       9.266       9.190       9.086       8.990       8.931       8.889       8.843    
        8.801       8.713       8.610       8.513       8.377       8.162       7.769       7.339       7.000       6.763    
        6.578       6.394       6.184       5.924       5.655       5.465       5.325       5.183       4.991       4.727    
        4.326       3.758       3.042       2.370       1.826       1.320      0.8368      0.5159      0.2718       0.000    
  11    10.00       9.916       9.869       9.833       9.800       9.769       9.735       9.687       9.620       9.550    
        9.470       9.388       9.322       9.231       9.127       9.036       8.967       8.911       8.869       8.819    
        8.744       8.631       8.486       8.343       8.108       7.790       7.441       7.151       6.875       6.701    
        6.545       6.308       6.069       5.876       5.694       5.551       5.410       5.227       4.999       4.690    
        4.314       3.811       3.084       2.470       1.987       1.500      0.9637      0.5108      0.2050       0.000    
  12    10.00       9.923       9.877       9.839       9.811       9.779       9.742       9.678       9.599       9.527    
        9.452       9.370       9.282       9.173       9.087       9.009       8.937       8.889       8.836       8.761    
        8.618       8.427       8.224       8.012       7.722       7.478       7.289       6.994       6.763       6.622    
        6.455       6.237       6.043       5.878       5.757       5.627       5.458       5.251       4.979       4.653    
        4.281       3.789       3.121       2.572       2.133       1.607       1.013      0.4828      0.1606       0.000    
  13    10.00       9.940       9.897       9.857       9.821       9.784       9.730       9.652       9.570       9.500    
        9.420       9.339       9.247       9.135       9.036       8.959       8.907       8.847       8.773       8.601    
        8.343       8.111       7.890       7.625       7.397       7.284       7.054       6.786       6.663       6.543    
        6.363       6.172       6.030       5.912       5.810       5.691       5.497       5.238       4.969       4.632    
        4.261       3.758       3.069       2.555       2.148       1.572      0.9434      0.4366      0.1261       0.000    
  14    10.00       9.956       9.917       9.875       9.832       9.776       9.699       9.616       9.544       9.464    
        9.385       9.310       9.201       9.077       8.988       8.925       8.843       8.755       8.584       8.282    
        8.005       7.796       7.505       7.286       7.180       7.052       6.816       6.658       6.539       6.423    
        6.268       6.144       6.056       5.955       5.848       5.724       5.506       5.221       4.932       4.589    
        4.189       3.582       2.933       2.517       2.019       1.466      0.9308      0.3989      0.1027       0.000    
  15    10.00       9.966       9.926       9.884       9.835       9.752       9.657       9.585       9.512       9.436    
        9.376       9.289       9.147       9.012       8.930       8.824       8.715       8.602       8.315       7.960    
        7.729       7.433       7.163       7.078       7.010       6.846       6.654       6.500       6.413       6.326    
        6.227       6.152       6.080       5.995       5.881       5.727       5.476       5.152       4.848       4.530    
        4.097       3.505       2.942       2.383       1.781       1.287      0.8006      0.3517      0.1055       0.000    
  16    10.00       9.975       9.937       9.887       9.811       9.709       9.627       9.569       9.504       9.425    
        9.345       9.223       9.060       8.930       8.814       8.688       8.612       8.389       7.971       7.640    
        7.403       7.108       7.004       6.950       6.829       6.622       6.467       6.391       6.358       6.296    
        6.220       6.158       6.101       6.011       5.873       5.683       5.382       5.086       4.845       4.501    
        4.008       3.370       2.724       2.104       1.592       1.104      0.6824      0.3340      0.1126       0.000    
  17    10.00       9.975       9.935       9.870       9.776       9.675       9.606       9.553       9.481       9.394    
        9.263       9.108       8.961       8.820       8.676       8.554       8.371       7.997       7.601       7.368    
        7.133       6.947       6.865       6.746       6.556       6.400       6.357       6.343       6.319       6.263    
        6.203       6.154       6.101       6.019       5.827       5.566       5.305       5.093       4.862       4.429    
        3.770       3.121       2.505       1.897       1.362      0.8931      0.5720      0.2987      0.1227       0.000    
  18    10.00       9.969       9.923       9.845       9.729       9.648       9.594       9.522       9.440       9.321    
        9.163       9.025       8.877       8.688       8.498       8.297       8.028       7.643       7.343       7.136    
        6.942       6.785       6.660       6.490       6.359       6.315       6.303       6.296       6.267       6.223    
        6.184       6.143       6.082       5.947       5.746       5.521       5.298       5.108       4.785       4.207    
        3.534       2.844       2.188       1.690       1.264      0.8373      0.4913      0.2471      0.1184       0.000    
  19    10.00       9.962       9.911       9.799       9.684       9.636       9.577       9.488       9.388       9.260    
        9.116       8.986       8.773       8.487       8.261       8.051       7.723       7.367       7.161       7.001    
        6.799       6.608       6.470       6.339       6.273       6.256       6.249       6.228       6.197       6.177    
        6.154       6.117       6.030       5.895       5.722       5.503       5.298       5.024       4.475       3.876    
        3.334       2.622       1.999       1.604       1.181      0.7554      0.4436      0.2515      0.1288       0.000    
  20    10.00       9.954       9.869       9.754       9.670       9.619       9.555       9.461       9.350       9.233    
        9.086       8.888       8.571       8.285       8.081       7.819       7.490       7.293       7.104       6.880    
        6.657       6.486       6.342       6.248       6.200       6.175       6.146       6.137       6.120       6.119    
        6.109       6.075       5.983       5.853       5.674       5.481       5.225       4.729       4.134       3.658    
        3.071       2.416       1.950       1.569       1.142      0.6701      0.3872      0.2618      0.1349       0.000    
  21    10.00       9.924       9.833       9.737       9.655       9.601       9.533       9.423       9.313       9.203    
        9.007       8.705       8.380       8.161       7.932       7.654       7.407       7.219       6.991       6.753    
        6.539       6.370       6.244       6.145       6.079       6.030       6.014       6.022       6.024       6.035    
        6.045       6.004       5.909       5.782       5.599       5.385       4.986       4.463       3.991       3.412    
        2.857       2.341       1.948       1.562      0.9611      0.5421      0.3918      0.2956      0.1417       0.000    
  22    10.00       9.904       9.795       9.710       9.645       9.581       9.484       9.383       9.286       9.134    
        8.883       8.540       8.279       8.081       7.822       7.536       7.297       7.097       6.887       6.661    
        6.447       6.269       6.101       5.950       5.864       5.845       5.862       5.878       5.915       5.936    
        5.951       5.905       5.823       5.689       5.501       5.287       4.876       4.366       3.750       3.190    
        2.788       2.376       1.904       1.257      0.7487      0.5401      0.4105      0.2733      0.1011       0.000    
  23    10.00       9.877       9.771       9.704       9.636       9.540       9.434       9.359       9.236       9.046    
        8.750       8.455       8.267       8.020       7.683       7.396       7.207       7.043       6.846       6.602    
        6.377       6.168       5.928       5.645       5.439       5.483       5.619       5.708       5.787       5.839    
        5.853       5.819       5.738       5.613       5.434       5.189       4.773       4.143       3.526       3.131    
        2.761       2.241       1.565       1.012      0.7364      0.5505      0.3937      0.2322      9.2409E-02   0.000    
  24    10.00       9.858       9.782       9.701       9.604       9.504       9.423       9.339       9.220       8.968    
        8.689       8.471       8.258       7.928       7.557       7.350       7.190       7.029       6.805       6.575    
        6.375       6.111       5.726       5.190       4.535       4.808       5.211       5.492       5.656       5.738    
        5.770       5.741       5.672       5.534       5.337       5.033       4.508       3.914       3.450       3.038    
        2.584       2.006       1.403      0.9810      0.7374      0.5361      0.3591      0.2516      0.1235       0.000    
  25    10.00       9.874       9.796       9.695       9.594       9.502       9.421       9.343       9.165       8.919    
        8.704       8.483       8.204       7.840       7.564       7.380       7.199       7.006       6.801       6.603    
        6.373       6.121       5.572       4.551       2.727       4.093       4.835       5.275       5.544       5.678    
        5.714       5.691       5.611       5.425       5.160       4.753       4.262       3.796       3.397       2.914    
        2.367       1.816       1.308      0.9720      0.7642      0.5570      0.3783      0.2634      0.1639       0.000    
  26    10.00       9.891       9.815       9.709       9.600       9.516       9.430       9.315       9.138       8.967    
        8.765       8.463       8.120       7.825       7.618       7.438       7.229       6.991       6.793       6.628    
        6.437       6.189       5.716       4.969       4.138       4.498       4.951       5.280       5.529       5.667    
        5.687       5.650       5.530       5.309       5.019       4.631       4.092       3.651       3.280       2.697    
        2.080       1.598       1.295       1.061      0.8240      0.6013      0.4123      0.2861      0.1672       0.000    
  27    10.00       9.913       9.819       9.724       9.630       9.530       9.434       9.317       9.171       9.014    
        8.758       8.417       8.116       7.872       7.699       7.493       7.221       6.973       6.819       6.684    
        6.536       6.308       5.953       5.515       5.074       5.054       5.231       5.443       5.621       5.688    
        5.676       5.623       5.484       5.244       4.906       4.385       3.881       3.521       2.962       2.354    
        1.877       1.568       1.340       1.135      0.9009      0.6562      0.4478      0.3148      0.1986       0.000    
  28    10.00       9.919       9.842       9.755       9.663       9.557       9.450       9.337       9.210       9.025    
        8.725       8.427       8.166       7.927       7.744       7.541       7.320       7.084       6.869       6.730    
        6.613       6.451       6.224       5.911       5.646       5.495       5.535       5.665       5.720       5.723    
        5.678       5.597       5.425       5.125       4.682       4.147       3.719       3.218       2.641       2.212    
        1.873       1.611       1.388       1.175      0.9465      0.7160      0.5080      0.3585      0.2049       0.000    
  29    10.00       9.925       9.849       9.780       9.690       9.595       9.490       9.374       9.234       8.986    
        8.705       8.452       8.203       8.003       7.794       7.580       7.380       7.192       6.988       6.808    
        6.682       6.559       6.410       6.226       5.978       5.857       5.844       5.846       5.837       5.772    
        5.678       5.527       5.324       4.937       4.406       3.944       3.518       3.000       2.541       2.228    
        1.954       1.667       1.414       1.209       1.004      0.7572      0.5367      0.3745      0.2077       0.000    
  30    10.00       9.935       9.872       9.812       9.730       9.636       9.542       9.410       9.221       8.994    
        8.710       8.435       8.231       8.030       7.832       7.639       7.479       7.307       7.110       6.919    
        6.766       6.663       6.538       6.415       6.281       6.166       6.119       6.027       5.947       5.821    
        5.640       5.389       5.112       4.712       4.303       3.876       3.423       2.941       2.596       2.313    
        1.987       1.700       1.479       1.247       1.002      0.7834      0.5720      0.3977      0.2235       0.000    
  31    10.00       9.948       9.896       9.838       9.778       9.701       9.594       9.429       9.213       8.974    
        8.700       8.454       8.268       8.072       7.888       7.710       7.552       7.418       7.220       7.031    
        6.892       6.782       6.684       6.585       6.504       6.396       6.282       6.173       6.024       5.826    
        5.540       5.230       4.952       4.635       4.249       3.800       3.344       2.952       2.710       2.440    
        2.078       1.763       1.512       1.276       1.048      0.8239      0.6061      0.4185      0.2167       0.000    
  32    10.00       9.955       9.917       9.867       9.809       9.737       9.622       9.431       9.233       9.008    
        8.726       8.498       8.323       8.121       7.924       7.779       7.643       7.485       7.326       7.141    
        6.997       6.881       6.787       6.693       6.604       6.519       6.387       6.239       6.038       5.766    
        5.446       5.148       4.869       4.571       4.193       3.790       3.434       3.101       2.823       2.514    
        2.180       1.868       1.604       1.333       1.086      0.8957      0.6681      0.4105      0.1833       0.000    
  33    10.00       9.962       9.932       9.889       9.830       9.752       9.601       9.413       9.254       9.051    
        8.793       8.577       8.370       8.141       7.968       7.848       7.730       7.568       7.395       7.233    
        7.075       6.954       6.835       6.735       6.659       6.575       6.418       6.207       5.991       5.734    
        5.418       5.156       4.869       4.507       4.157       3.802       3.514       3.251       2.935       2.594    
        2.306       2.011       1.722       1.442       1.181      0.9695      0.7145      0.4123      0.1792       0.000    
  34    10.00       9.968       9.946       9.909       9.832       9.716       9.576       9.445       9.281       9.080    
        8.860       8.624       8.390       8.166       8.025       7.928       7.801       7.645       7.449       7.290    
        7.145       6.992       6.865       6.769       6.691       6.574       6.387       6.186       5.961       5.661    
        5.384       5.176       4.891       4.543       4.200       3.875       3.604       3.343       3.017       2.710    
        2.453       2.170       1.854       1.575       1.311       1.068      0.7639      0.4638      0.2432       0.000    
  35    10.00       9.973       9.945       9.893       9.797       9.684       9.583       9.470       9.337       9.119    
        8.876       8.638       8.401       8.218       8.096       7.993       7.856       7.690       7.497       7.309    
        7.148       7.002       6.874       6.783       6.697       6.578       6.376       6.140       5.875       5.564    
        5.357       5.137       4.852       4.598       4.313       3.975       3.677       3.459       3.153       2.827    
        2.579       2.290       1.973       1.698       1.424       1.158      0.8755      0.5802      0.2870       0.000    
  36    10.00       9.967       9.922       9.865       9.775       9.670       9.586       9.487       9.342       9.130    
        8.864       8.610       8.442       8.306       8.185       8.053       7.890       7.719       7.510       7.254    
        7.079       6.968       6.858       6.781       6.696       6.545       6.317       6.058       5.734       5.458    
        5.285       5.106       4.865       4.622       4.386       4.084       3.789       3.559       3.287       2.931    
        2.660       2.337       2.020       1.811       1.545       1.249      0.9657      0.6572      0.3215       0.000    
  37    10.00       9.949       9.901       9.843       9.755       9.663       9.567       9.473       9.338       9.090    
        8.812       8.619       8.521       8.390       8.238       8.104       7.900       7.685       7.413       7.150    
        7.039       6.945       6.839       6.754       6.652       6.465       6.234       5.891       5.598       5.423    
        5.276       5.088       4.851       4.662       4.422       4.137       3.907       3.686       3.381       2.990    
        2.634       2.332       2.112       1.895       1.628       1.347       1.064      0.7247      0.3979       0.000    
  38    10.00       9.942       9.880       9.819       9.741       9.653       9.551       9.448       9.293       9.059    
        8.851       8.700       8.575       8.454       8.288       8.065       7.831       7.577       7.271       7.100    
        7.011       6.886       6.774       6.703       6.584       6.377       6.036       5.717       5.568       5.437    
        5.283       5.085       4.873       4.686       4.452       4.194       4.006       3.782       3.392       2.962    
        2.654       2.401       2.183       1.959       1.723       1.437       1.155      0.8382      0.4142       0.000    
  39    10.00       9.925       9.864       9.809       9.734       9.633       9.524       9.418       9.271       9.080    
        8.917       8.801       8.660       8.491       8.243       7.958       7.695       7.395       7.181       7.073    
        6.935       6.789       6.704       6.635       6.518       6.240       5.901       5.716       5.581       5.446    
        5.273       5.087       4.884       4.697       4.520       4.310       4.062       3.791       3.407       3.007    
        2.681       2.420       2.249       2.061       1.795       1.512       1.226      0.8724      0.4088       0.000    
  40    10.00       9.916       9.858       9.801       9.724       9.619       9.513       9.407       9.277       9.117    
        8.983       8.879       8.701       8.431       8.116       7.831       7.551       7.297       7.143       7.005    
        6.843       6.718       6.648       6.559       6.402       6.153       5.930       5.747       5.597       5.457    
        5.287       5.089       4.898       4.743       4.588       4.375       4.090       3.806       3.416       2.987    
        2.682       2.476       2.287       2.126       1.847       1.537       1.276      0.8749      0.4073       0.000    
  41    10.00       9.924       9.855       9.787       9.703       9.621       9.531       9.433       9.304       9.158    
        9.029       8.901       8.665       8.341       8.017       7.750       7.477       7.236       7.084       6.932    
        6.770       6.662       6.582       6.477       6.315       6.131       5.982       5.806       5.620       5.455    
        5.294       5.116       4.933       4.799       4.635       4.422       4.137       3.745       3.298       2.968    
        2.747       2.547       2.351       2.128       1.837       1.541       1.317      0.9322      0.4226       0.000    
  42    10.00       9.923       9.845       9.785       9.724       9.647       9.552       9.439       9.329       9.216    
        9.048       8.824       8.549       8.239       7.938       7.696       7.428       7.195       7.030       6.859    
        6.709       6.612       6.523       6.428       6.284       6.157       6.032       5.832       5.623       5.476    
        5.345       5.150       4.956       4.825       4.673       4.447       4.097       3.635       3.225       2.980    
        2.813       2.634       2.385       2.088       1.809       1.577       1.345      0.9832      0.4851       0.000    
  43    10.00       9.916       9.851       9.799       9.749       9.676       9.581       9.474       9.350       9.172    
        8.952       8.720       8.464       8.141       7.871       7.647       7.407       7.172       6.963       6.803    
        6.669       6.572       6.497       6.420       6.298       6.169       6.042       5.834       5.653       5.545    
        5.385       5.176       4.988       4.854       4.677       4.384       3.979       3.541       3.243       3.055    
        2.877       2.672       2.366       2.061       1.815       1.591       1.391      0.9971      0.4556       0.000    
  44    10.00       9.916       9.859       9.812       9.752       9.697       9.619       9.474       9.287       9.080    
        8.896       8.661       8.351       8.081       7.866       7.609       7.346       7.096       6.890       6.749    
        6.652       6.569       6.495       6.415       6.311       6.178       6.007       5.835       5.714       5.585    
        5.442       5.259       5.045       4.840       4.624       4.296       3.872       3.512       3.281       3.099    
        2.920       2.677       2.382       2.117       1.854       1.614       1.368      0.9002      0.4140       0.000    
  45    10.00       9.925       9.872       9.811       9.753       9.704       9.575       9.402       9.213       9.035    
        8.883       8.569       8.246       8.051       7.818       7.532       7.245       7.015       6.848       6.738    
        6.664       6.587       6.505       6.411       6.295       6.166       6.021       5.890       5.783       5.649    
        5.483       5.295       5.073       4.815       4.557       4.204       3.806       3.522       3.347       3.160    
        2.921       2.643       2.389       2.149       1.915       1.676       1.278      0.7999      0.4026       0.000    
  46    10.00       9.939       9.882       9.811       9.744       9.648       9.507       9.376       9.217       9.026    
        8.773       8.474       8.215       7.967       7.719       7.441       7.176       7.005       6.869       6.764    
        6.689       6.614       6.511       6.393       6.282       6.172       6.059       5.938       5.830       5.713    
        5.563       5.364       5.113       4.807       4.438       4.072       3.777       3.577       3.394       3.199    
        2.917       2.620       2.368       2.177       1.954       1.643       1.190      0.7640      0.3767       0.000    
  47    10.00       9.950       9.896       9.825       9.711       9.584       9.463       9.360       9.214       8.962    
        8.658       8.384       8.159       7.952       7.689       7.387       7.152       6.991       6.882       6.794    
        6.713       6.625       6.516       6.393       6.284       6.198       6.105       5.986       5.862       5.746    
        5.616       5.449       5.115       4.686       4.327       4.064       3.817       3.645       3.483       3.212    
        2.869       2.554       2.326       2.195       1.948       1.567       1.125      0.7370      0.3723       0.000    
  48    10.00       9.955       9.899       9.794       9.676       9.566       9.445       9.341       9.192       8.908    
        8.577       8.347       8.163       7.908       7.602       7.330       7.154       6.991       6.883       6.814    
        6.732       6.626       6.509       6.396       6.307       6.239       6.155       6.024       5.880       5.755    
        5.618       5.417       5.070       4.714       4.394       4.103       3.883       3.707       3.499       3.156    
        2.786       2.544       2.363       2.130       1.806       1.468       1.089      0.7422      0.3929       0.000    
  49    10.00       9.953       9.868       9.766       9.677       9.559       9.441       9.331       9.144       8.843    
        8.547       8.328       8.097       7.840       7.609       7.355       7.110       6.959       6.893       6.828    
        6.750       6.628       6.493       6.395       6.327       6.276       6.180       6.029       5.877       5.765    
        5.616       5.352       5.046       4.794       4.525       4.205       3.920       3.702       3.458       3.090    
        2.792       2.580       2.330       1.994       1.707       1.402       1.071      0.7544      0.3842       0.000    
  50    10.00       9.941       9.847       9.754       9.683       9.572       9.442       9.301       9.099       8.862    
        8.561       8.267       8.028       7.822       7.636       7.353       7.073       6.959       6.901       6.838    
        6.763       6.626       6.482       6.393       6.339       6.292       6.185       6.022       5.877       5.762    
        5.600       5.323       5.087       4.871       4.580       4.261       3.973       3.683       3.333       3.007    
        2.849       2.626       2.260       1.922       1.682       1.391       1.104      0.7369      0.3027       0.000    

 HEAD WILL BE SAVED ON UNIT   51 AT END OF TIME STEP  36, STRESS PERIOD    2

 DRAWDOWN WILL BE SAVED ON UNIT   52 AT END OF TIME STEP  36, STRESS PERIOD    2
1
  VOLUMETRIC BUDGET FOR ENTIRE MODEL AT END OF TIME STEP 36 IN STRESS PERIOD   2
  ------------------------------------------------------------------------------

     CUMULATIVE VOLUMES      L**3       RATES FOR THIS TIME STEP      L**3/T
     ------------------                 ------------------------

           IN:                                      IN:
           ---                                      ---
             STORAGE =       17847.1660               STORAGE =         482.7594
       CONSTANT HEAD =       20126.9414         CONSTANT HEAD =         556.8275
               WELLS =           0.0000                 WELLS =           0.0000

            TOTAL IN =       37974.1094              TOTAL IN =        1039.5869

          OUT:                                     OUT:
          ----                                     ----
             STORAGE =       9.3745E-03               STORAGE =           0.0000
       CONSTANT HEAD =       19974.0938         CONSTANT HEAD =         539.5866
               WELLS =       18000.0000                 WELLS =         500.0000

           TOTAL OUT =       37974.1016             TOTAL OUT =        1039.5867

            IN - OUT =       7.8125E-03              IN - OUT =       2.4414E-04

 PERCENT DISCREPANCY =           0.00     PERCENT DISCREPANCY =           0.00






          TIME SUMMARY AT END OF TIME STEP  36 IN STRESS PERIOD    2
                    SECONDS     MINUTES      HOURS       DAYS        YEARS
                    -----------------------------------------------------------
   TIME STEP LENGTH  86400.      1440.0      24.000      1.0000     2.73785E-03
 STRESS PERIOD TIME 3.11040E+06  51840.      864.00      36.000     9.85626E-02
         TOTAL TIME 3.19680E+06  53280.      888.00      37.000     0.10130    
1
 
 SOLVING FOR HEAD 

 OUTPUT CONTROL FOR STRESS PERIOD    2   TIME STEP  37
    SAVE HEAD FOR ALL LAYERS
    SAVE DRAWDOWN FOR ALL LAYERS
    SAVE BUDGET
    PRINT HEAD FOR ALL LAYERS
    PRINT BUDGET
 UBDSV1 SAVING "         STORAGE" ON UNIT  53 AT TIME STEP 37, STRESS PERIOD   2
 UBDSV2 SAVING "   CONSTANT HEAD" ON UNIT  53 AT TIME STEP 37, STRESS PERIOD   2
 UBDSV1 SAVING "FLOW RIGHT FACE " ON UNIT  53 AT TIME STEP 37, STRESS PERIOD   2
 UBDSV1 SAVING "FLOW FRONT FACE " ON UNIT  53 AT TIME STEP 37, STRESS PERIOD   2
1
              HEAD IN LAYER   1 AT END OF TIME STEP  37 IN STRESS PERIOD    2
  ---------------------------------------------------------------------------

            1           2           3           4           5           6           7           8           9          10
           11          12          13          14          15          16          17          18          19          20
           21          22          23          24          25          26          27          28          29          30
           31          32          33          34          35          36          37          38          39          40
           41          42          43          44          45          46          47          48          49          50
 ........................................................................................................................
   1    10.00       9.958       9.901       9.845       9.798       9.740       9.683       9.624       9.544       9.479    
        9.441       9.402       9.359       9.316       9.247       9.172       9.089       9.025       8.996       8.963    
        8.923       8.889       8.853       8.807       8.744       8.634       8.501       8.371       8.222       8.074    
        7.862       7.526       7.131       6.715       6.248       5.817       5.452       5.113       4.649       4.145    
        3.716       3.292       2.707       2.153       1.764       1.375       1.048      0.8374      0.5553       0.000    
   2    10.00       9.958       9.907       9.850       9.800       9.747       9.684       9.606       9.529       9.479    
        9.445       9.410       9.377       9.323       9.244       9.166       9.091       9.028       8.996       8.960    
        8.919       8.892       8.864       8.816       8.743       8.638       8.504       8.369       8.229       8.081    
        7.852       7.506       7.091       6.621       6.150       5.734       5.407       5.074       4.604       4.132    
        3.699       3.189       2.661       2.221       1.835       1.472       1.099      0.7953      0.4246       0.000    
   3    10.00       9.954       9.905       9.853       9.802       9.741       9.663       9.589       9.540       9.494    
        9.454       9.424       9.391       9.341       9.262       9.165       9.085       9.033       8.994       8.957    
        8.923       8.895       8.866       8.806       8.729       8.623       8.496       8.394       8.246       8.070    
        7.776       7.375       6.934       6.478       6.044       5.656       5.364       5.021       4.514       4.054    
        3.694       3.228       2.741       2.318       1.917       1.550       1.110      0.6824      0.3001       0.000    
   4    10.00       9.958       9.908       9.851       9.788       9.718       9.643       9.588       9.547       9.503    
        9.469       9.443       9.407       9.353       9.280       9.174       9.086       9.037       8.995       8.960    
        8.922       8.888       8.852       8.789       8.710       8.607       8.484       8.370       8.256       8.036    
        7.657       7.168       6.698       6.349       6.024       5.647       5.272       4.837       4.409       4.073    
        3.751       3.338       2.850       2.433       2.011       1.567       1.059      0.6060      0.2822       0.000    
   5    10.00       9.955       9.902       9.837       9.772       9.707       9.642       9.595       9.552       9.514    
        9.484       9.457       9.415       9.352       9.267       9.171       9.095       9.042       8.999       8.951    
        8.906       8.872       8.827       8.762       8.688       8.571       8.449       8.351       8.236       7.957    
        7.463       6.928       6.540       6.275       5.980       5.598       5.170       4.742       4.436       4.151    
        3.859       3.433       2.923       2.557       2.129       1.547      0.9633      0.5593      0.2813       0.000    
   6    10.00       9.944       9.881       9.831       9.769       9.701       9.646       9.604       9.560       9.526    
        9.498       9.464       9.410       9.337       9.265       9.185       9.103       9.038       8.982       8.928    
        8.888       8.851       8.810       8.741       8.633       8.521       8.430       8.324       8.132       7.733    
        7.186       6.704       6.408       6.207       5.968       5.550       5.085       4.743       4.518       4.267    
        3.983       3.596       3.089       2.634       2.103       1.480      0.8637      0.4919      0.2748       0.000    
   7    10.00       9.928       9.869       9.820       9.761       9.712       9.660       9.616       9.578       9.542    
        9.505       9.458       9.392       9.321       9.256       9.190       9.100       9.012       8.953       8.908    
        8.869       8.829       8.786       8.695       8.584       8.494       8.395       8.227       7.907       7.403    
        6.885       6.509       6.324       6.167       5.865       5.453       5.145       4.845       4.599       4.424    
        4.135       3.735       3.191       2.602       1.948       1.233      0.7239      0.4994      0.2529       0.000    
   8    10.00       9.923       9.869       9.816       9.764       9.720       9.675       9.633       9.597       9.562    
        9.509       9.440       9.371       9.309       9.248       9.167       9.060       8.977       8.932       8.889    
        8.844       8.810       8.740       8.644       8.545       8.439       8.254       7.989       7.555       7.119    
        6.732       6.433       6.291       6.100       5.761       5.443       5.187       4.966       4.766       4.559    
        4.259       3.764       3.136       2.464       1.719       1.113      0.7660      0.4899      0.2257       0.000    
   9    10.00       9.927       9.866       9.814       9.776       9.740       9.696       9.655       9.613       9.574    
        9.507       9.422       9.352       9.288       9.215       9.125       9.029       8.955       8.908       8.863    
        8.822       8.767       8.671       8.582       8.482       8.336       8.069       7.672       7.244       6.932    
        6.625       6.403       6.245       5.992       5.679       5.432       5.248       5.078       4.907       4.680    
        4.308       3.792       3.123       2.372       1.686       1.152      0.7814      0.4859      0.2409       0.000    
  10    10.00       9.926       9.864       9.821       9.788       9.752       9.714       9.678       9.630       9.567    
        9.487       9.402       9.333       9.264       9.187       9.083       8.986       8.927       8.885       8.840    
        8.797       8.709       8.605       8.508       8.371       8.155       7.761       7.331       6.991       6.754    
        6.569       6.386       6.176       5.917       5.648       5.458       5.319       5.177       4.986       4.723    
        4.323       3.756       3.040       2.369       1.826       1.320      0.8366      0.5158      0.2718       0.000    
  11    10.00       9.916       9.868       9.833       9.799       9.768       9.734       9.686       9.619       9.549    
        9.468       9.385       9.319       9.228       9.123       9.032       8.963       8.907       8.865       8.814    
        8.739       8.626       8.480       8.336       8.100       7.781       7.431       7.141       6.865       6.691    
        6.536       6.299       6.060       5.867       5.686       5.544       5.403       5.221       4.994       4.686    
        4.311       3.808       3.082       2.469       1.986       1.500      0.9635      0.5107      0.2050       0.000    
  12    10.00       9.923       9.876       9.839       9.811       9.778       9.741       9.677       9.597       9.526    
        9.449       9.368       9.279       9.169       9.083       9.005       8.932       8.885       8.832       8.756    
        8.612       8.421       8.216       8.003       7.712       7.466       7.277       6.983       6.752       6.611    
        6.444       6.227       6.033       5.869       5.748       5.619       5.451       5.245       4.974       4.649    
        4.278       3.786       3.120       2.571       2.133       1.607       1.013      0.4828      0.1605       0.000    
  13    10.00       9.940       9.897       9.856       9.820       9.783       9.729       9.650       9.568       9.498    
        9.418       9.336       9.243       9.131       9.032       8.954       8.902       8.842       8.768       8.595    
        8.335       8.102       7.879       7.613       7.384       7.271       7.040       6.772       6.650       6.531    
        6.351       6.160       6.019       5.902       5.801       5.683       5.490       5.231       4.964       4.628    
        4.257       3.756       3.067       2.554       2.147       1.572      0.9433      0.4366      0.1261       0.000    
  14    10.00       9.956       9.917       9.874       9.832       9.776       9.697       9.615       9.542       9.462    
        9.382       9.307       9.197       9.073       8.983       8.920       8.837       8.749       8.576       8.273    
        7.994       7.784       7.491       7.271       7.165       7.037       6.801       6.643       6.524       6.409    
        6.255       6.131       6.044       5.944       5.838       5.714       5.498       5.214       4.927       4.584    
        4.186       3.580       2.931       2.516       2.019       1.466      0.9307      0.3989      0.1027       0.000    
  15    10.00       9.966       9.926       9.884       9.834       9.751       9.655       9.583       9.510       9.433    
        9.373       9.285       9.142       9.007       8.925       8.817       8.707       8.594       8.306       7.948    
        7.715       7.418       7.147       7.061       6.994       6.829       6.638       6.483       6.396       6.311    
        6.212       6.138       6.067       5.983       5.870       5.717       5.468       5.145       4.843       4.525    
        4.094       3.503       2.941       2.382       1.781       1.287      0.8005      0.3516      0.1055       0.000    
  16    10.00       9.975       9.936       9.886       9.810       9.708       9.626       9.567       9.502       9.422    
        9.342       9.219       9.055       8.924       8.807       8.680       8.604       8.379       7.958       7.626    
        7.387       7.091       6.987       6.933       6.811       6.604       6.449       6.374       6.341       6.280    
        6.205       6.143       6.087       5.998       5.862       5.673       5.374       5.079       4.839       4.496    
        4.005       3.368       2.722       2.103       1.592       1.103      0.6823      0.3339      0.1126       0.000    
  17    10.00       9.975       9.935       9.869       9.776       9.673       9.604       9.551       9.479       9.391    
        9.259       9.103       8.955       8.813       8.667       8.545       8.360       7.983       7.585       7.351    
        7.115       6.929       6.847       6.728       6.537       6.381       6.338       6.325       6.302       6.247    
        6.187       6.139       6.087       6.006       5.815       5.556       5.297       5.086       4.856       4.425    
        3.768       3.119       2.504       1.897       1.361      0.8929      0.5719      0.2987      0.1227       0.000    
  18    10.00       9.969       9.922       9.845       9.728       9.646       9.592       9.519       9.437       9.317    
        9.158       9.019       8.869       8.679       8.488       8.285       8.014       7.627       7.325       7.118    
        6.923       6.766       6.640       6.471       6.339       6.296       6.283       6.277       6.248       6.206    
        6.168       6.127       6.067       5.933       5.734       5.511       5.290       5.101       4.779       4.203    
        3.532       2.843       2.187       1.689       1.263      0.8372      0.4912      0.2470      0.1184       0.000    
  19    10.00       9.962       9.911       9.798       9.682       9.634       9.575       9.486       9.385       9.255    
        9.110       8.979       8.765       8.477       8.248       8.037       7.707       7.349       7.142       6.981    
        6.779       6.588       6.450       6.318       6.253       6.236       6.229       6.209       6.177       6.159    
        6.136       6.100       6.014       5.881       5.710       5.492       5.289       5.017       4.469       3.873    
        3.332       2.621       1.998       1.604       1.181      0.7552      0.4435      0.2515      0.1288       0.000    
  20    10.00       9.954       9.868       9.753       9.669       9.617       9.553       9.458       9.346       9.229    
        9.080       8.880       8.560       8.272       8.067       7.804       7.472       7.274       7.085       6.860    
        6.637       6.465       6.321       6.227       6.179       6.155       6.125       6.117       6.100       6.100    
        6.091       6.058       5.967       5.838       5.662       5.470       5.216       4.722       4.130       3.655    
        3.069       2.415       1.950       1.568       1.142      0.6700      0.3872      0.2617      0.1349       0.000    
  21    10.00       9.924       9.832       9.736       9.654       9.599       9.530       9.420       9.309       9.198    
        9.000       8.696       8.368       8.148       7.917       7.638       7.389       7.201       6.972       6.733    
        6.518       6.350       6.223       6.124       6.058       6.009       5.993       6.001       6.003       6.015    
        6.025       5.986       5.892       5.767       5.587       5.374       4.978       4.458       3.988       3.410    
        2.856       2.340       1.948       1.561      0.9609      0.5420      0.3918      0.2956      0.1417       0.000    
  22    10.00       9.904       9.795       9.709       9.644       9.579       9.481       9.379       9.281       9.129    
        8.875       8.529       8.266       8.066       7.807       7.519       7.279       7.077       6.867       6.640    
        6.426       6.248       6.080       5.928       5.843       5.824       5.841       5.857       5.893       5.915    
        5.930       5.886       5.806       5.674       5.488       5.276       4.868       4.361       3.747       3.189    
        2.787       2.376       1.903       1.257      0.7486      0.5401      0.4105      0.2733      0.1010       0.000    
  23    10.00       9.876       9.770       9.702       9.634       9.537       9.431       9.355       9.231       9.039    
        8.741       8.444       8.254       8.005       7.666       7.378       7.188       7.023       6.826       6.581    
        6.356       6.147       5.906       5.624       5.417       5.461       5.597       5.686       5.765       5.817    
        5.833       5.799       5.721       5.598       5.421       5.178       4.765       4.139       3.524       3.129    
        2.760       2.241       1.565       1.012      0.7363      0.5505      0.3937      0.2322      9.2402E-02   0.000    
  24    10.00       9.857       9.781       9.700       9.602       9.502       9.420       9.335       9.216       8.961    
        8.679       8.460       8.246       7.913       7.540       7.331       7.171       7.009       6.785       6.554    
        6.354       6.089       5.704       5.168       4.513       4.785       5.189       5.470       5.634       5.717    
        5.749       5.721       5.654       5.518       5.324       5.023       4.502       3.910       3.448       3.037    
        2.583       2.006       1.403      0.9809      0.7374      0.5361      0.3590      0.2515      0.1235       0.000    
  25    10.00       9.874       9.795       9.693       9.592       9.499       9.418       9.340       9.160       8.912    
        8.695       8.472       8.191       7.824       7.547       7.362       7.180       6.986       6.781       6.583    
        6.352       6.100       5.550       4.528       2.703       4.069       4.811       5.252       5.522       5.656    
        5.694       5.671       5.594       5.409       5.147       4.744       4.256       3.792       3.395       2.913    
        2.366       1.816       1.308      0.9719      0.7641      0.5570      0.3783      0.2634      0.1639       0.000    
  26    10.00       9.891       9.814       9.707       9.598       9.514       9.427       9.311       9.133       8.960    
        8.757       8.452       8.107       7.809       7.601       7.420       7.211       6.972       6.773       6.607    
        6.416       6.168       5.694       4.946       4.115       4.474       4.927       5.257       5.506       5.645    
        5.666       5.631       5.513       5.295       5.007       4.623       4.086       3.647       3.277       2.696    
        2.080       1.597       1.295       1.061      0.8240      0.6012      0.4123      0.2861      0.1671       0.000    
  27    10.00       9.913       9.818       9.722       9.628       9.528       9.430       9.313       9.166       9.007    
        8.750       8.405       8.103       7.857       7.683       7.476       7.203       6.954       6.800       6.664    
        6.516       6.287       5.931       5.493       5.051       5.030       5.207       5.419       5.598       5.667    
        5.656       5.604       5.467       5.230       4.895       4.378       3.877       3.518       2.960       2.353    
        1.877       1.568       1.340       1.135      0.9008      0.6562      0.4478      0.3148      0.1986       0.000    
  28    10.00       9.919       9.841       9.754       9.661       9.555       9.447       9.333       9.205       9.019    
        8.716       8.416       8.153       7.913       7.728       7.525       7.303       7.065       6.849       6.710    
        6.593       6.431       6.203       5.889       5.624       5.471       5.512       5.642       5.697       5.702    
        5.659       5.579       5.410       5.113       4.673       4.142       3.716       3.216       2.639       2.211    
        1.873       1.611       1.388       1.174      0.9464      0.7160      0.5080      0.3584      0.2048       0.000    
  29    10.00       9.924       9.848       9.779       9.688       9.592       9.487       9.370       9.229       8.979    
        8.696       8.441       8.191       7.989       7.779       7.564       7.363       7.174       6.969       6.788    
        6.662       6.539       6.390       6.205       5.956       5.835       5.821       5.824       5.816       5.752    
        5.660       5.511       5.310       4.928       4.400       3.940       3.515       2.999       2.540       2.227    
        1.953       1.667       1.414       1.209       1.004      0.7571      0.5367      0.3745      0.2077       0.000    
  30    10.00       9.934       9.871       9.811       9.729       9.634       9.539       9.406       9.216       8.988    
        8.702       8.425       8.220       8.017       7.818       7.624       7.463       7.290       7.092       6.901    
        6.747       6.644       6.518       6.395       6.260       6.145       6.099       6.006       5.928       5.803    
        5.625       5.377       5.103       4.705       4.299       3.873       3.421       2.940       2.595       2.312    
        1.987       1.699       1.479       1.247       1.002      0.7833      0.5720      0.3977      0.2235       0.000    
  31    10.00       9.948       9.895       9.838       9.777       9.700       9.592       9.426       9.208       8.968    
        8.692       8.444       8.257       8.059       7.874       7.696       7.537       7.402       7.203       7.013    
        6.874       6.763       6.665       6.566       6.486       6.378       6.263       6.155       6.007       5.811    
        5.527       5.220       4.945       4.630       4.246       3.797       3.342       2.951       2.709       2.439    
        2.078       1.762       1.512       1.276       1.048      0.8239      0.6060      0.4185      0.2167       0.000    
  32    10.00       9.954       9.917       9.867       9.808       9.736       9.620       9.428       9.229       9.002    
        8.718       8.489       8.313       8.109       7.912       7.766       7.629       7.470       7.310       7.125    
        6.980       6.863       6.770       6.676       6.587       6.502       6.370       6.223       6.024       5.754    
        5.437       5.141       4.864       4.566       4.190       3.788       3.433       3.101       2.823       2.513    
        2.180       1.868       1.604       1.333       1.086      0.8957      0.6681      0.4105      0.1833       0.000    
  33    10.00       9.961       9.932       9.889       9.830       9.751       9.599       9.410       9.250       9.045    
        8.786       8.569       8.361       8.131       7.956       7.836       7.717       7.555       7.380       7.218    
        7.059       6.937       6.819       6.719       6.644       6.559       6.403       6.193       5.979       5.725    
        5.411       5.150       4.864       4.503       4.155       3.800       3.513       3.250       2.934       2.594    
        2.306       2.011       1.721       1.442       1.181      0.9695      0.7145      0.4123      0.1792       0.000    
  34    10.00       9.968       9.945       9.909       9.831       9.715       9.574       9.443       9.277       9.075    
        8.854       8.616       8.381       8.156       8.015       7.917       7.789       7.633       7.435       7.277    
        7.130       6.977       6.851       6.755       6.677       6.561       6.374       6.175       5.951       5.654    
        5.378       5.171       4.887       4.540       4.198       3.874       3.603       3.342       3.017       2.710    
        2.453       2.170       1.854       1.575       1.311       1.068      0.7639      0.4638      0.2432       0.000    
  35    10.00       9.973       9.945       9.893       9.796       9.682       9.582       9.468       9.334       9.114    
        8.871       8.632       8.393       8.209       8.086       7.983       7.845       7.678       7.485       7.296    
        7.136       6.990       6.862       6.771       6.685       6.566       6.366       6.131       5.868       5.559    
        5.353       5.133       4.850       4.596       4.312       3.974       3.676       3.459       3.153       2.827    
        2.579       2.289       1.973       1.698       1.424       1.158      0.8755      0.5802      0.2870       0.000    
  36    10.00       9.967       9.922       9.864       9.774       9.669       9.584       9.485       9.340       9.127    
        8.859       8.604       8.436       8.299       8.177       8.043       7.880       7.709       7.499       7.244    
        7.069       6.958       6.848       6.771       6.686       6.535       6.309       6.051       5.729       5.455    
        5.282       5.104       4.863       4.621       4.385       4.083       3.789       3.559       3.286       2.931    
        2.660       2.337       2.020       1.811       1.545       1.249      0.9657      0.6572      0.3215       0.000    
  37    10.00       9.949       9.901       9.843       9.755       9.662       9.566       9.471       9.336       9.087    
        8.807       8.613       8.516       8.384       8.231       8.096       7.892       7.677       7.404       7.141    
        7.031       6.937       6.831       6.746       6.644       6.458       6.227       5.887       5.595       5.420    
        5.274       5.086       4.850       4.661       4.421       4.137       3.907       3.686       3.381       2.990    
        2.634       2.332       2.112       1.895       1.628       1.347       1.064      0.7247      0.3979       0.000    
  38    10.00       9.942       9.879       9.818       9.741       9.652       9.550       9.447       9.291       9.056    
        8.847       8.695       8.570       8.449       8.282       8.058       7.824       7.570       7.264       7.093    
        7.004       6.879       6.767       6.697       6.578       6.372       6.032       5.715       5.566       5.435    
        5.281       5.084       4.872       4.685       4.451       4.194       4.006       3.781       3.391       2.962    
        2.654       2.401       2.183       1.959       1.723       1.437       1.155      0.8382      0.4142       0.000    
  39    10.00       9.925       9.863       9.808       9.734       9.632       9.523       9.416       9.269       9.077    
        8.914       8.797       8.656       8.486       8.237       7.953       7.689       7.390       7.175       7.068    
        6.930       6.784       6.699       6.630       6.513       6.236       5.899       5.714       5.580       5.445    
        5.271       5.086       4.883       4.696       4.520       4.309       4.062       3.790       3.407       3.007    
        2.681       2.420       2.249       2.061       1.795       1.512       1.226      0.8724      0.4088       0.000    
  40    10.00       9.916       9.857       9.801       9.723       9.618       9.512       9.406       9.275       9.115    
        8.980       8.876       8.698       8.427       8.112       7.827       7.547       7.293       7.139       7.001    
        6.839       6.714       6.644       6.555       6.398       6.150       5.928       5.745       5.596       5.455    
        5.286       5.088       4.897       4.742       4.588       4.375       4.090       3.806       3.416       2.987    
        2.682       2.476       2.287       2.126       1.847       1.537       1.276      0.8749      0.4073       0.000    
  41    10.00       9.923       9.855       9.787       9.703       9.620       9.531       9.432       9.302       9.156    
        9.027       8.898       8.663       8.338       8.014       7.747       7.474       7.233       7.081       6.929    
        6.767       6.659       6.579       6.474       6.313       6.129       5.981       5.805       5.618       5.454    
        5.293       5.115       4.933       4.798       4.634       4.422       4.137       3.745       3.298       2.967    
        2.746       2.547       2.351       2.128       1.837       1.541       1.317      0.9321      0.4226       0.000    
  42    10.00       9.923       9.845       9.785       9.723       9.647       9.551       9.438       9.327       9.214    
        9.046       8.822       8.547       8.237       7.936       7.693       7.426       7.193       7.028       6.857    
        6.706       6.610       6.521       6.426       6.282       6.156       6.031       5.831       5.622       5.475    
        5.344       5.150       4.955       4.825       4.673       4.447       4.096       3.634       3.225       2.979    
        2.813       2.634       2.385       2.088       1.809       1.577       1.345      0.9832      0.4851       0.000    
  43    10.00       9.916       9.850       9.799       9.749       9.675       9.581       9.474       9.349       9.171    
        8.951       8.719       8.462       8.140       7.870       7.646       7.405       7.170       6.961       6.801    
        6.667       6.570       6.496       6.418       6.297       6.168       6.040       5.833       5.652       5.544    
        5.384       5.175       4.988       4.853       4.676       4.384       3.979       3.541       3.243       3.055    
        2.877       2.672       2.366       2.061       1.815       1.591       1.391      0.9971      0.4556       0.000    
  44    10.00       9.916       9.858       9.812       9.752       9.696       9.618       9.473       9.287       9.080    
        8.895       8.660       8.350       8.080       7.865       7.607       7.344       7.094       6.888       6.748    
        6.650       6.568       6.494       6.414       6.309       6.177       6.006       5.834       5.713       5.584    
        5.441       5.259       5.044       4.840       4.624       4.296       3.871       3.512       3.281       3.099    
        2.920       2.677       2.381       2.117       1.853       1.614       1.368      0.9002      0.4139       0.000    
  45    10.00       9.925       9.871       9.810       9.753       9.704       9.575       9.402       9.212       9.034    
        8.882       8.568       8.245       8.050       7.817       7.531       7.244       7.013       6.847       6.737    
        6.663       6.586       6.504       6.410       6.294       6.165       6.020       5.889       5.782       5.648    
        5.482       5.294       5.073       4.815       4.556       4.204       3.806       3.522       3.347       3.159    
        2.921       2.643       2.389       2.148       1.915       1.676       1.278      0.7999      0.4026       0.000    
  46    10.00       9.939       9.882       9.811       9.744       9.647       9.506       9.375       9.216       9.026    
        8.772       8.473       8.215       7.966       7.718       7.440       7.175       7.004       6.868       6.763    
        6.688       6.613       6.509       6.392       6.281       6.171       6.058       5.938       5.830       5.712    
        5.562       5.363       5.112       4.806       4.437       4.071       3.777       3.577       3.394       3.198    
        2.917       2.620       2.367       2.177       1.954       1.643       1.190      0.7640      0.3766       0.000    
  47    10.00       9.950       9.896       9.825       9.711       9.583       9.463       9.360       9.213       8.962    
        8.658       8.383       8.159       7.951       7.688       7.386       7.151       6.990       6.881       6.793    
        6.712       6.624       6.515       6.392       6.283       6.198       6.104       5.985       5.861       5.745    
        5.615       5.448       5.115       4.686       4.327       4.064       3.817       3.645       3.483       3.212    
        2.869       2.554       2.326       2.195       1.948       1.567       1.125      0.7370      0.3723       0.000    
  48    10.00       9.955       9.899       9.794       9.676       9.566       9.445       9.340       9.192       8.908    
        8.576       8.347       8.162       7.908       7.601       7.329       7.153       6.990       6.882       6.813    
        6.731       6.625       6.508       6.395       6.306       6.238       6.154       6.023       5.879       5.754    
        5.618       5.417       5.069       4.714       4.393       4.103       3.883       3.706       3.499       3.156    
        2.786       2.544       2.363       2.130       1.806       1.468       1.089      0.7422      0.3929       0.000    
  49    10.00       9.953       9.868       9.766       9.677       9.559       9.441       9.331       9.144       8.843    
        8.547       8.327       8.097       7.839       7.608       7.355       7.109       6.958       6.892       6.827    
        6.749       6.627       6.492       6.394       6.326       6.276       6.179       6.028       5.877       5.764    
        5.616       5.351       5.045       4.794       4.525       4.205       3.920       3.702       3.458       3.090    
        2.792       2.580       2.330       1.994       1.707       1.402       1.071      0.7544      0.3842       0.000    
  50    10.00       9.941       9.847       9.754       9.682       9.572       9.441       9.301       9.099       8.861    
        8.561       8.267       8.027       7.822       7.636       7.352       7.073       6.958       6.900       6.837    
        6.762       6.625       6.481       6.392       6.338       6.291       6.184       6.021       5.877       5.761    
        5.599       5.322       5.086       4.871       4.580       4.261       3.973       3.683       3.332       3.007    
        2.849       2.626       2.260       1.922       1.682       1.391       1.104      0.7369      0.3027       0.000    

 HEAD WILL BE SAVED ON UNIT   51 AT END OF TIME STEP  37, STRESS PERIOD    2

 DRAWDOWN WILL BE SAVED ON UNIT   52 AT END OF TIME STEP  37, STRESS PERIOD    2
1
  VOLUMETRIC BUDGET FOR ENTIRE MODEL AT END OF TIME STEP 37 IN STRESS PERIOD   2
  ------------------------------------------------------------------------------

     CUMULATIVE VOLUMES      L**3       RATES FOR THIS TIME STEP      L**3/T
     ------------------                 ------------------------

           IN:                                      IN:
           ---                                      ---
             STORAGE =       18328.5273               STORAGE =         481.3617
       CONSTANT HEAD =       20685.1230         CONSTANT HEAD =         558.1813
               WELLS =           0.0000                 WELLS =           0.0000

            TOTAL IN =       39013.6484              TOTAL IN =        1039.5430

          OUT:                                     OUT:
          ----                                     ----
             STORAGE =       9.3745E-03               STORAGE =           0.0000
       CONSTANT HEAD =       20513.6367         CONSTANT HEAD =         539.5428
               WELLS =       18500.0000                 WELLS =         500.0000

           TOTAL OUT =       39013.6445             TOTAL OUT =        1039.5428

            IN - OUT =       3.9063E-03              IN - OUT =       1.2207E-04

 PERCENT DISCREPANCY =           0.00     PERCENT DISCREPANCY =           0.00






          TIME SUMMARY AT END OF TIME STEP  37 IN STRESS PERIOD    2
                    SECONDS     MINUTES      HOURS       DAYS        YEARS
                    -----------------------------------------------------------
   TIME STEP LENGTH  86400.      1440.0      24.000      1.0000     2.73785E-03
 STRESS PERIOD TIME 3.19680E+06  53280.      888.00      37.000     0.10130    
         TOTAL TIME 3.28320E+06  54720.      912.00      38.000     0.10404    
1
 
 SOLVING FOR HEAD 

 OUTPUT CONTROL FOR STRESS PERIOD    2   TIME STEP  38
    SAVE HEAD FOR ALL LAYERS
    SAVE DRAWDOWN FOR ALL LAYERS
    SAVE BUDGET
    PRINT HEAD FOR ALL LAYERS
    PRINT BUDGET
 UBDSV1 SAVING "         STORAGE" ON UNIT  53 AT TIME STEP 38, STRESS PERIOD   2
 UBDSV2 SAVING "   CONSTANT HEAD" ON UNIT  53 AT TIME STEP 38, STRESS PERIOD   2
 UBDSV1 SAVING "FLOW RIGHT FACE " ON UNIT  53 AT TIME STEP 38, STRESS PERIOD   2
 UBDSV1 SAVING "FLOW FRONT FACE " ON UNIT  53 AT TIME STEP 38, STRESS PERIOD   2
1
              HEAD IN LAYER   1 AT END OF TIME STEP  38 IN STRESS PERIOD    2
  ---------------------------------------------------------------------------

            1           2           3           4           5           6           7           8           9          10
           11          12          13          14          15          16          17          18          19          20
           21          22          23          24          25          26          27          28          29          30
           31          32          33          34          35          36          37          38          39          40
           41          42          43          44          45          46          47          48          49          50
 ........................................................................................................................
   1    10.00       9.958       9.901       9.844       9.797       9.739       9.682       9.623       9.543       9.478    
        9.439       9.400       9.357       9.314       9.245       9.169       9.087       9.022       8.993       8.961    
        8.920       8.886       8.850       8.805       8.742       8.631       8.498       8.369       8.220       8.071    
        7.860       7.524       7.129       6.713       6.247       5.816       5.451       5.111       4.648       4.144    
        3.715       3.292       2.707       2.152       1.764       1.374       1.048      0.8372      0.5552       0.000    
   2    10.00       9.958       9.907       9.850       9.799       9.746       9.683       9.605       9.528       9.478    
        9.443       9.408       9.375       9.322       9.242       9.164       9.089       9.025       8.994       8.957    
        8.916       8.890       8.861       8.813       8.741       8.636       8.502       8.367       8.227       8.078    
        7.850       7.504       7.089       6.619       6.148       5.733       5.406       5.073       4.603       4.131    
        3.698       3.188       2.660       2.221       1.835       1.472       1.099      0.7951      0.4245       0.000    
   3    10.00       9.954       9.905       9.853       9.802       9.740       9.662       9.588       9.539       9.493    
        9.453       9.422       9.390       9.339       9.260       9.163       9.083       9.031       8.991       8.954    
        8.920       8.892       8.863       8.803       8.726       8.620       8.493       8.391       8.244       8.068    
        7.774       7.373       6.931       6.476       6.042       5.655       5.363       5.020       4.512       4.053    
        3.692       3.227       2.740       2.318       1.917       1.550       1.109      0.6822      0.3000       0.000    
   4    10.00       9.958       9.908       9.851       9.788       9.717       9.642       9.587       9.545       9.502    
        9.467       9.441       9.405       9.351       9.278       9.172       9.083       9.035       8.992       8.957    
        8.919       8.885       8.849       8.786       8.707       8.604       8.481       8.368       8.253       8.033    
        7.654       7.165       6.695       6.347       6.021       5.645       5.270       4.836       4.407       4.071    
        3.750       3.337       2.849       2.432       2.010       1.566       1.058      0.6059      0.2822       0.000    
   5    10.00       9.954       9.902       9.837       9.772       9.706       9.640       9.594       9.550       9.513    
        9.483       9.455       9.413       9.350       9.265       9.168       9.093       9.040       8.996       8.948    
        8.903       8.869       8.823       8.758       8.685       8.568       8.446       8.348       8.233       7.954    
        7.460       6.925       6.537       6.271       5.977       5.595       5.167       4.739       4.434       4.149    
        3.858       3.431       2.921       2.557       2.128       1.547      0.9630      0.5592      0.2813       0.000    
   6    10.00       9.944       9.881       9.830       9.769       9.701       9.645       9.603       9.559       9.524    
        9.496       9.463       9.408       9.335       9.263       9.182       9.101       9.035       8.979       8.925    
        8.885       8.848       8.806       8.738       8.629       8.518       8.426       8.320       8.129       7.730    
        7.182       6.700       6.403       6.203       5.964       5.547       5.082       4.740       4.515       4.264    
        3.980       3.594       3.087       2.633       2.102       1.479      0.8635      0.4918      0.2747       0.000    
   7    10.00       9.927       9.869       9.819       9.760       9.711       9.659       9.615       9.577       9.541    
        9.504       9.456       9.390       9.319       9.254       9.188       9.097       9.009       8.950       8.905    
        8.866       8.826       8.783       8.692       8.581       8.491       8.391       8.223       7.903       7.398    
        6.880       6.503       6.319       6.162       5.860       5.449       5.141       4.841       4.596       4.421    
        4.133       3.733       3.189       2.601       1.947       1.232      0.7237      0.4993      0.2528       0.000    
   8    10.00       9.923       9.869       9.816       9.763       9.720       9.674       9.632       9.596       9.561    
        9.508       9.438       9.369       9.307       9.245       9.164       9.057       8.974       8.929       8.886    
        8.840       8.806       8.736       8.640       8.541       8.435       8.249       7.984       7.549       7.113    
        6.726       6.427       6.285       6.095       5.756       5.438       5.182       4.962       4.763       4.555    
        4.256       3.762       3.134       2.463       1.719       1.113      0.7658      0.4898      0.2256       0.000    
   9    10.00       9.926       9.865       9.813       9.776       9.739       9.695       9.654       9.612       9.572    
        9.505       9.421       9.349       9.286       9.213       9.122       9.025       8.952       8.904       8.859    
        8.818       8.763       8.667       8.577       8.477       8.331       8.063       7.666       7.237       6.924    
        6.618       6.396       6.238       5.985       5.673       5.426       5.243       5.073       4.903       4.676    
        4.305       3.789       3.121       2.371       1.685       1.152      0.7812      0.4858      0.2408       0.000    
  10    10.00       9.925       9.863       9.821       9.787       9.752       9.713       9.677       9.629       9.566    
        9.485       9.400       9.331       9.261       9.184       9.080       8.983       8.923       8.881       8.835    
        8.793       8.704       8.600       8.503       8.365       8.149       7.753       7.322       6.982       6.746    
        6.561       6.378       6.168       5.909       5.641       5.452       5.313       5.172       4.981       4.719    
        4.320       3.754       3.039       2.368       1.825       1.319      0.8364      0.5157      0.2717       0.000    
  11    10.00       9.916       9.868       9.832       9.798       9.767       9.733       9.685       9.618       9.547    
        9.466       9.383       9.317       9.225       9.120       9.029       8.959       8.903       8.861       8.810    
        8.735       8.621       8.474       8.330       8.093       7.772       7.421       7.131       6.855       6.681    
        6.526       6.290       6.051       5.859       5.679       5.537       5.397       5.215       4.990       4.682    
        4.307       3.806       3.081       2.468       1.986       1.500      0.9634      0.5106      0.2050       0.000    
  12    10.00       9.923       9.876       9.838       9.810       9.778       9.740       9.675       9.596       9.524    
        9.447       9.365       9.276       9.166       9.079       9.001       8.928       8.880       8.827       8.751    
        8.606       8.414       8.208       7.994       7.701       7.455       7.266       6.971       6.740       6.600    
        6.434       6.216       6.024       5.860       5.740       5.611       5.444       5.239       4.969       4.645    
        4.275       3.784       3.119       2.570       2.132       1.606       1.013      0.4827      0.1605       0.000    
  13    10.00       9.940       9.896       9.856       9.820       9.783       9.728       9.649       9.567       9.496    
        9.415       9.333       9.240       9.127       9.028       8.949       8.897       8.837       8.763       8.588    
        8.327       8.092       7.869       7.601       7.371       7.257       7.027       6.759       6.637       6.518    
        6.339       6.149       6.009       5.892       5.792       5.674       5.482       5.225       4.959       4.624    
        4.254       3.754       3.066       2.553       2.147       1.571      0.9432      0.4365      0.1261       0.000    
  14    10.00       9.956       9.917       9.874       9.831       9.775       9.696       9.613       9.540       9.459    
        9.380       9.304       9.193       9.068       8.978       8.914       8.832       8.743       8.569       8.264    
        7.983       7.772       7.478       7.257       7.150       7.023       6.785       6.628       6.509       6.395    
        6.241       6.119       6.032       5.933       5.828       5.705       5.490       5.207       4.922       4.580    
        4.183       3.578       2.930       2.516       2.018       1.466      0.9306      0.3989      0.1027       0.000    
  15    10.00       9.965       9.926       9.883       9.834       9.750       9.654       9.581       9.508       9.430    
        9.370       9.282       9.138       9.001       8.919       8.811       8.700       8.587       8.296       7.936    
        7.702       7.403       7.131       7.045       6.978       6.813       6.621       6.467       6.380       6.295    
        6.198       6.124       6.054       5.971       5.859       5.707       5.459       5.138       4.837       4.521    
        4.090       3.501       2.939       2.381       1.780       1.286      0.8004      0.3516      0.1055       0.000    
  16    10.00       9.975       9.936       9.886       9.809       9.707       9.624       9.565       9.499       9.420    
        9.339       9.214       9.049       8.918       8.800       8.672       8.595       8.369       7.946       7.611    
        7.372       7.074       6.970       6.916       6.794       6.587       6.431       6.356       6.324       6.264    
        6.190       6.129       6.073       5.985       5.850       5.663       5.366       5.073       4.833       4.492    
        4.001       3.366       2.721       2.102       1.592       1.103      0.6822      0.3339      0.1126       0.000    
  17    10.00       9.975       9.934       9.869       9.775       9.672       9.603       9.549       9.476       9.388    
        9.255       9.097       8.949       8.805       8.659       8.535       8.350       7.970       7.570       7.334    
        7.097       6.911       6.829       6.710       6.519       6.363       6.320       6.307       6.284       6.230    
        6.172       6.124       6.073       5.992       5.803       5.546       5.288       5.079       4.850       4.420    
        3.765       3.117       2.503       1.896       1.361      0.8928      0.5719      0.2986      0.1227       0.000    
  18    10.00       9.969       9.922       9.844       9.727       9.645       9.590       9.517       9.435       9.313    
        9.153       9.013       8.862       8.671       8.478       8.273       8.001       7.611       7.308       7.100    
        6.905       6.747       6.621       6.451       6.319       6.277       6.264       6.258       6.230       6.189    
        6.151       6.112       6.052       5.919       5.722       5.501       5.281       5.093       4.773       4.199    
        3.529       2.841       2.186       1.689       1.263      0.8370      0.4912      0.2470      0.1184       0.000    
  19    10.00       9.962       9.910       9.797       9.681       9.633       9.573       9.483       9.381       9.251    
        9.105       8.973       8.757       8.466       8.236       8.024       7.691       7.331       7.124       6.963    
        6.760       6.569       6.430       6.299       6.233       6.216       6.210       6.190       6.159       6.141    
        6.119       6.084       5.999       5.867       5.698       5.482       5.280       5.009       4.464       3.870    
        3.330       2.619       1.998       1.603       1.181      0.7551      0.4434      0.2515      0.1288       0.000    
  20    10.00       9.954       9.868       9.752       9.667       9.615       9.550       9.455       9.342       9.224    
        9.074       8.873       8.550       8.260       8.054       7.788       7.455       7.256       7.066       6.841    
        6.617       6.445       6.301       6.207       6.159       6.135       6.105       6.097       6.081       6.081    
        6.072       6.040       5.951       5.824       5.649       5.459       5.207       4.716       4.126       3.652    
        3.068       2.414       1.949       1.568       1.141      0.6699      0.3871      0.2617      0.1348       0.000    
  21    10.00       9.924       9.831       9.735       9.652       9.597       9.528       9.417       9.305       9.193    
        8.994       8.687       8.356       8.134       7.902       7.621       7.372       7.182       6.953       6.713    
        6.498       6.329       6.203       6.104       6.038       5.989       5.973       5.981       5.983       5.995    
        6.006       5.968       5.875       5.752       5.574       5.363       4.970       4.452       3.984       3.407    
        2.854       2.339       1.947       1.561      0.9608      0.5420      0.3917      0.2955      0.1417       0.000    
  22    10.00       9.904       9.794       9.707       9.642       9.577       9.479       9.376       9.277       9.123    
        8.867       8.519       8.253       8.052       7.791       7.502       7.261       7.058       6.847       6.620    
        6.406       6.227       6.059       5.907       5.822       5.803       5.820       5.836       5.873       5.895    
        5.911       5.867       5.789       5.658       5.475       5.265       4.860       4.356       3.744       3.187    
        2.786       2.375       1.903       1.257      0.7485      0.5400      0.4105      0.2732      0.1010       0.000    
  23    10.00       9.876       9.769       9.701       9.632       9.535       9.428       9.351       9.226       9.033    
        8.732       8.432       8.241       7.991       7.650       7.360       7.169       7.004       6.806       6.561    
        6.335       6.126       5.885       5.602       5.396       5.440       5.575       5.665       5.744       5.796    
        5.812       5.780       5.703       5.582       5.408       5.167       4.757       4.134       3.521       3.128    
        2.758       2.240       1.564       1.012      0.7362      0.5504      0.3937      0.2322      9.2395E-02   0.000    
  24    10.00       9.857       9.780       9.698       9.600       9.499       9.417       9.331       9.211       8.954    
        8.670       8.448       8.233       7.898       7.522       7.313       7.152       6.990       6.765       6.534    
        6.333       6.068       5.682       5.146       4.490       4.762       5.166       5.448       5.612       5.695    
        5.728       5.702       5.637       5.503       5.311       5.012       4.495       3.906       3.445       3.035    
        2.582       2.006       1.403      0.9808      0.7373      0.5360      0.3590      0.2515      0.1235       0.000    
  25    10.00       9.873       9.794       9.692       9.589       9.496       9.414       9.335       9.155       8.904    
        8.685       8.461       8.178       7.809       7.530       7.344       7.162       6.967       6.761       6.563    
        6.332       6.079       5.528       4.505       2.680       4.046       4.788       5.229       5.499       5.634    
        5.673       5.652       5.576       5.394       5.135       4.734       4.250       3.788       3.392       2.911    
        2.365       1.815       1.307      0.9718      0.7641      0.5569      0.3782      0.2634      0.1639       0.000    
  26    10.00       9.890       9.813       9.706       9.596       9.511       9.423       9.306       9.127       8.952    
        8.748       8.441       8.093       7.794       7.584       7.403       7.193       6.953       6.753       6.587    
        6.396       6.147       5.673       4.924       4.092       4.451       4.903       5.234       5.483       5.623    
        5.646       5.612       5.496       5.280       4.996       4.614       4.081       3.644       3.275       2.695    
        2.079       1.597       1.294       1.061      0.8239      0.6012      0.4122      0.2861      0.1671       0.000    
  27    10.00       9.912       9.817       9.721       9.626       9.525       9.427       9.309       9.160       9.001    
        8.741       8.394       8.090       7.842       7.667       7.459       7.185       6.935       6.780       6.645    
        6.495       6.267       5.910       5.471       5.029       5.007       5.183       5.396       5.575       5.646    
        5.636       5.586       5.451       5.216       4.884       4.370       3.872       3.515       2.959       2.352    
        1.876       1.567       1.339       1.135      0.9007      0.6561      0.4477      0.3148      0.1986       0.000    
  28    10.00       9.918       9.840       9.752       9.659       9.552       9.443       9.329       9.200       9.012    
        8.708       8.405       8.140       7.899       7.713       7.508       7.285       7.047       6.830       6.691    
        6.573       6.411       6.182       5.868       5.602       5.449       5.489       5.620       5.676       5.681    
        5.639       5.562       5.395       5.101       4.665       4.136       3.712       3.214       2.638       2.210    
        1.872       1.611       1.388       1.174      0.9463      0.7159      0.5079      0.3584      0.2048       0.000    
  29    10.00       9.924       9.847       9.778       9.686       9.590       9.484       9.366       9.224       8.972    
        8.688       8.431       8.179       7.976       7.765       7.548       7.347       7.156       6.951       6.769    
        6.643       6.519       6.370       6.185       5.934       5.813       5.799       5.802       5.795       5.733    
        5.642       5.495       5.297       4.918       4.394       3.936       3.512       2.997       2.539       2.227    
        1.953       1.666       1.413       1.209       1.004      0.7571      0.5367      0.3745      0.2077       0.000    
  30    10.00       9.934       9.870       9.810       9.727       9.632       9.536       9.402       9.211       8.982    
        8.694       8.414       8.208       8.005       7.804       7.609       7.447       7.273       7.074       6.882    
        6.728       6.624       6.499       6.375       6.239       6.124       6.078       5.986       5.909       5.785    
        5.609       5.364       5.093       4.699       4.294       3.869       3.419       2.939       2.594       2.312    
        1.987       1.699       1.479       1.246       1.002      0.7833      0.5719      0.3977      0.2234       0.000    
  31    10.00       9.947       9.895       9.837       9.775       9.698       9.590       9.423       9.204       8.961    
        8.684       8.434       8.246       8.047       7.861       7.682       7.522       7.386       7.187       6.996    
        6.856       6.745       6.646       6.547       6.467       6.359       6.244       6.137       5.989       5.795    
        5.515       5.211       4.938       4.625       4.242       3.795       3.341       2.950       2.708       2.439    
        2.078       1.762       1.512       1.276       1.048      0.8239      0.6060      0.4184      0.2166       0.000    
  32    10.00       9.954       9.917       9.866       9.808       9.734       9.618       9.425       9.225       8.996    
        8.710       8.480       8.303       8.098       7.899       7.753       7.615       7.455       7.295       7.108    
        6.963       6.846       6.752       6.659       6.570       6.485       6.352       6.206       6.009       5.742    
        5.427       5.133       4.858       4.562       4.187       3.786       3.431       3.100       2.822       2.513    
        2.179       1.868       1.604       1.333       1.085      0.8957      0.6681      0.4105      0.1833       0.000    
  33    10.00       9.961       9.932       9.888       9.829       9.750       9.597       9.407       9.246       9.040    
        8.779       8.561       8.351       8.120       7.945       7.824       7.704       7.541       7.366       7.203    
        7.043       6.921       6.803       6.704       6.628       6.544       6.388       6.180       5.968       5.715    
        5.404       5.144       4.859       4.500       4.152       3.799       3.511       3.250       2.934       2.593    
        2.305       2.011       1.721       1.441       1.181      0.9695      0.7145      0.4123      0.1792       0.000    
  34    10.00       9.968       9.945       9.908       9.830       9.713       9.572       9.440       9.274       9.070    
        8.848       8.609       8.373       8.146       8.004       7.906       7.778       7.620       7.422       7.263    
        7.116       6.963       6.837       6.741       6.663       6.547       6.362       6.164       5.942       5.647    
        5.373       5.166       4.884       4.538       4.196       3.873       3.602       3.342       3.016       2.709    
        2.453       2.170       1.854       1.575       1.311       1.068      0.7639      0.4638      0.2432       0.000    
  35    10.00       9.973       9.945       9.892       9.795       9.681       9.580       9.466       9.331       9.110    
        8.865       8.625       8.385       8.201       8.077       7.973       7.834       7.667       7.473       7.284    
        7.124       6.978       6.850       6.759       6.673       6.555       6.355       6.121       5.860       5.554    
        5.349       5.130       4.847       4.595       4.311       3.973       3.676       3.458       3.153       2.826    
        2.579       2.289       1.973       1.698       1.424       1.158      0.8755      0.5802      0.2870       0.000    
  36    10.00       9.967       9.922       9.864       9.773       9.667       9.583       9.484       9.337       9.123    
        8.854       8.598       8.429       8.291       8.169       8.034       7.870       7.698       7.489       7.234    
        7.059       6.948       6.839       6.761       6.676       6.526       6.300       6.044       5.724       5.451    
        5.279       5.102       4.861       4.620       4.384       4.083       3.788       3.558       3.286       2.930    
        2.659       2.336       2.020       1.811       1.545       1.249      0.9657      0.6572      0.3215       0.000    
  37    10.00       9.949       9.900       9.842       9.754       9.661       9.564       9.469       9.334       9.084    
        8.803       8.608       8.510       8.377       8.223       8.088       7.883       7.668       7.395       7.133    
        7.022       6.929       6.823       6.737       6.636       6.450       6.221       5.882       5.592       5.418    
        5.272       5.085       4.849       4.660       4.420       4.136       3.906       3.686       3.380       2.990    
        2.634       2.332       2.112       1.895       1.628       1.347       1.064      0.7247      0.3979       0.000    
  38    10.00       9.941       9.879       9.818       9.740       9.651       9.548       9.445       9.288       9.053    
        8.843       8.690       8.565       8.443       8.275       8.051       7.817       7.563       7.258       7.086    
        6.997       6.873       6.761       6.690       6.571       6.366       6.028       5.712       5.564       5.433    
        5.280       5.083       4.871       4.684       4.451       4.193       4.005       3.781       3.391       2.961    
        2.653       2.401       2.183       1.959       1.722       1.437       1.155      0.8382      0.4142       0.000    
  39    10.00       9.925       9.863       9.808       9.733       9.631       9.522       9.415       9.267       9.075    
        8.910       8.793       8.651       8.481       8.232       7.948       7.684       7.385       7.170       7.062    
        6.924       6.779       6.694       6.625       6.509       6.232       5.897       5.712       5.578       5.443    
        5.270       5.085       4.882       4.696       4.519       4.309       4.062       3.790       3.406       3.006    
        2.681       2.420       2.248       2.061       1.795       1.512       1.226      0.8724      0.4088       0.000    
  40    10.00       9.916       9.857       9.801       9.723       9.618       9.511       9.404       9.273       9.113    
        8.977       8.873       8.694       8.424       8.108       7.823       7.543       7.289       7.135       6.996    
        6.835       6.710       6.640       6.552       6.395       6.148       5.926       5.743       5.594       5.454    
        5.285       5.088       4.896       4.742       4.587       4.374       4.089       3.806       3.416       2.987    
        2.682       2.476       2.287       2.126       1.847       1.537       1.276      0.8749      0.4073       0.000    
  41    10.00       9.923       9.855       9.787       9.702       9.619       9.530       9.431       9.301       9.154    
        9.024       8.896       8.660       8.336       8.011       7.745       7.471       7.230       7.078       6.926    
        6.765       6.656       6.576       6.472       6.310       6.128       5.979       5.803       5.617       5.453    
        5.292       5.114       4.932       4.797       4.633       4.421       4.136       3.744       3.297       2.967    
        2.746       2.547       2.351       2.128       1.837       1.541       1.317      0.9321      0.4226       0.000    
  42    10.00       9.923       9.845       9.785       9.723       9.646       9.550       9.438       9.326       9.213    
        9.044       8.820       8.545       8.235       7.934       7.691       7.423       7.190       7.025       6.854    
        6.704       6.608       6.519       6.424       6.280       6.154       6.030       5.830       5.621       5.474    
        5.343       5.149       4.955       4.824       4.672       4.446       4.096       3.634       3.225       2.979    
        2.813       2.634       2.385       2.088       1.809       1.577       1.345      0.9832      0.4851       0.000    
  43    10.00       9.916       9.850       9.798       9.749       9.675       9.580       9.473       9.348       9.170    
        8.950       8.718       8.461       8.138       7.868       7.644       7.403       7.168       6.959       6.799    
        6.665       6.568       6.494       6.417       6.295       6.166       6.039       5.832       5.651       5.543    
        5.383       5.174       4.987       4.853       4.676       4.383       3.978       3.541       3.243       3.054    
        2.877       2.672       2.366       2.061       1.815       1.591       1.391      0.9970      0.4556       0.000    
  44    10.00       9.915       9.858       9.811       9.752       9.696       9.618       9.473       9.286       9.079    
        8.894       8.659       8.349       8.079       7.864       7.606       7.343       7.093       6.886       6.746    
        6.649       6.567       6.492       6.412       6.308       6.176       6.005       5.834       5.712       5.584    
        5.440       5.258       5.043       4.839       4.623       4.296       3.871       3.511       3.281       3.099    
        2.920       2.677       2.381       2.117       1.853       1.614       1.368      0.9001      0.4139       0.000    
  45    10.00       9.925       9.871       9.810       9.752       9.703       9.574       9.401       9.212       9.034    
        8.881       8.567       8.245       8.049       7.816       7.530       7.243       7.012       6.846       6.736    
        6.661       6.584       6.503       6.409       6.293       6.163       6.019       5.888       5.781       5.648    
        5.482       5.293       5.072       4.814       4.556       4.204       3.805       3.522       3.347       3.159    
        2.921       2.642       2.389       2.148       1.915       1.676       1.278      0.7999      0.4026       0.000    
  46    10.00       9.939       9.882       9.811       9.744       9.647       9.506       9.375       9.216       9.025    
        8.772       8.472       8.214       7.965       7.717       7.439       7.174       7.003       6.867       6.762    
        6.687       6.612       6.508       6.391       6.279       6.170       6.057       5.937       5.829       5.711    
        5.561       5.362       5.112       4.806       4.437       4.071       3.777       3.577       3.394       3.198    
        2.916       2.620       2.367       2.177       1.954       1.643       1.190      0.7640      0.3766       0.000    
  47    10.00       9.950       9.896       9.825       9.710       9.583       9.462       9.359       9.213       8.961    
        8.657       8.383       8.158       7.950       7.687       7.385       7.151       6.989       6.880       6.792    
        6.711       6.622       6.514       6.391       6.282       6.197       6.103       5.984       5.860       5.745    
        5.614       5.447       5.114       4.686       4.326       4.063       3.817       3.645       3.483       3.212    
        2.869       2.554       2.326       2.195       1.948       1.567       1.125      0.7370      0.3723       0.000    
  48    10.00       9.955       9.899       9.793       9.675       9.565       9.444       9.340       9.192       8.908    
        8.576       8.346       8.162       7.907       7.600       7.328       7.152       6.989       6.881       6.812    
        6.729       6.624       6.507       6.394       6.305       6.237       6.153       6.022       5.878       5.754    
        5.617       5.416       5.069       4.713       4.393       4.103       3.883       3.706       3.499       3.156    
        2.786       2.544       2.363       2.130       1.806       1.468       1.089      0.7422      0.3929       0.000    
  49    10.00       9.953       9.868       9.766       9.677       9.559       9.441       9.331       9.144       8.843    
        8.546       8.326       8.096       7.838       7.607       7.354       7.108       6.957       6.891       6.826    
        6.748       6.626       6.491       6.393       6.325       6.275       6.178       6.027       5.876       5.763    
        5.615       5.351       5.045       4.793       4.524       4.204       3.920       3.702       3.458       3.090    
        2.792       2.580       2.330       1.994       1.707       1.402       1.071      0.7544      0.3842       0.000    
  50    10.00       9.941       9.847       9.754       9.682       9.572       9.441       9.301       9.099       8.861    
        8.560       8.266       8.026       7.821       7.635       7.351       7.072       6.957       6.899       6.836    
        6.761       6.624       6.480       6.391       6.337       6.290       6.183       6.020       5.876       5.761    
        5.599       5.322       5.086       4.870       4.579       4.261       3.973       3.683       3.332       3.007    
        2.849       2.626       2.260       1.922       1.682       1.391       1.104      0.7369      0.3027       0.000    

 HEAD WILL BE SAVED ON UNIT   51 AT END OF TIME STEP  38, STRESS PERIOD    2

 DRAWDOWN WILL BE SAVED ON UNIT   52 AT END OF TIME STEP  38, STRESS PERIOD    2
1
  VOLUMETRIC BUDGET FOR ENTIRE MODEL AT END OF TIME STEP 38 IN STRESS PERIOD   2
  ------------------------------------------------------------------------------

     CUMULATIVE VOLUMES      L**3       RATES FOR THIS TIME STEP      L**3/T
     ------------------                 ------------------------

           IN:                                      IN:
           ---                                      ---
             STORAGE =       18808.4473               STORAGE =         479.9205
       CONSTANT HEAD =       21244.6973         CONSTANT HEAD =         559.5743
               WELLS =           0.0000                 WELLS =           0.0000

            TOTAL IN =       40053.1445              TOTAL IN =        1039.4949

          OUT:                                     OUT:
          ----                                     ----
             STORAGE =       9.3745E-03               STORAGE =           0.0000
       CONSTANT HEAD =       21053.1309         CONSTANT HEAD =         539.4949
               WELLS =       19000.0000                 WELLS =         500.0000

           TOTAL OUT =       40053.1406             TOTAL OUT =        1039.4949

            IN - OUT =       3.9063E-03              IN - OUT =           0.0000

 PERCENT DISCREPANCY =           0.00     PERCENT DISCREPANCY =           0.00






          TIME SUMMARY AT END OF TIME STEP  38 IN STRESS PERIOD    2
                    SECONDS     MINUTES      HOURS       DAYS        YEARS
                    -----------------------------------------------------------
   TIME STEP LENGTH  86400.      1440.0      24.000      1.0000     2.73785E-03
 STRESS PERIOD TIME 3.28320E+06  54720.      912.00      38.000     0.10404    
         TOTAL TIME 3.36960E+06  56160.      936.00      39.000     0.10678    
1
 
 SOLVING FOR HEAD 

 OUTPUT CONTROL FOR STRESS PERIOD    2   TIME STEP  39
    SAVE HEAD FOR ALL LAYERS
    SAVE DRAWDOWN FOR ALL LAYERS
    SAVE BUDGET
    PRINT HEAD FOR ALL LAYERS
    PRINT BUDGET
 UBDSV1 SAVING "         STORAGE" ON UNIT  53 AT TIME STEP 39, STRESS PERIOD   2
 UBDSV2 SAVING "   CONSTANT HEAD" ON UNIT  53 AT TIME STEP 39, STRESS PERIOD   2
 UBDSV1 SAVING "FLOW RIGHT FACE " ON UNIT  53 AT TIME STEP 39, STRESS PERIOD   2
 UBDSV1 SAVING "FLOW FRONT FACE " ON UNIT  53 AT TIME STEP 39, STRESS PERIOD   2
1
              HEAD IN LAYER   1 AT END OF TIME STEP  39 IN STRESS PERIOD    2
  ---------------------------------------------------------------------------

            1           2           3           4           5           6           7           8           9          10
           11          12          13          14          15          16          17          18          19          20
           21          22          23          24          25          26          27          28          29          30
           31          32          33          34          35          36          37          38          39          40
           41          42          43          44          45          46          47          48          49          50
 ........................................................................................................................
   1    10.00       9.958       9.901       9.844       9.797       9.739       9.682       9.622       9.542       9.476    
        9.438       9.398       9.355       9.312       9.243       9.167       9.085       9.020       8.990       8.958    
        8.918       8.883       8.847       8.802       8.739       8.629       8.496       8.366       8.217       8.069    
        7.858       7.522       7.127       6.711       6.245       5.814       5.449       5.110       4.646       4.143    
        3.714       3.291       2.706       2.151       1.763       1.374       1.048      0.8370      0.5551       0.000    
   2    10.00       9.958       9.907       9.849       9.799       9.745       9.682       9.604       9.527       9.476    
        9.441       9.406       9.373       9.320       9.240       9.162       9.086       9.023       8.991       8.954    
        8.913       8.887       8.858       8.810       8.738       8.633       8.499       8.364       8.224       8.076    
        7.848       7.502       7.087       6.617       6.146       5.731       5.404       5.071       4.602       4.130    
        3.697       3.187       2.659       2.220       1.834       1.471       1.099      0.7949      0.4244       0.000    
   3    10.00       9.954       9.905       9.852       9.801       9.739       9.661       9.586       9.537       9.491    
        9.451       9.420       9.388       9.337       9.258       9.160       9.081       9.028       8.989       8.952    
        8.917       8.889       8.860       8.800       8.723       8.617       8.490       8.389       8.241       8.065    
        7.771       7.370       6.929       6.474       6.040       5.653       5.361       5.018       4.511       4.051    
        3.691       3.226       2.739       2.317       1.916       1.550       1.109      0.6821      0.3000       0.000    
   4    10.00       9.957       9.907       9.850       9.787       9.716       9.641       9.586       9.544       9.501    
        9.466       9.440       9.403       9.349       9.276       9.170       9.081       9.032       8.989       8.955    
        8.916       8.882       8.846       8.783       8.704       8.601       8.478       8.365       8.250       8.030    
        7.652       7.163       6.692       6.344       6.019       5.643       5.268       4.834       4.405       4.069    
        3.748       3.336       2.848       2.431       2.010       1.566       1.058      0.6057      0.2821       0.000    
   5    10.00       9.954       9.902       9.836       9.771       9.705       9.639       9.593       9.549       9.512    
        9.481       9.454       9.412       9.348       9.263       9.166       9.090       9.037       8.993       8.945    
        8.900       8.866       8.820       8.755       8.682       8.565       8.442       8.345       8.230       7.951    
        7.456       6.921       6.533       6.268       5.973       5.592       5.165       4.737       4.432       4.147    
        3.856       3.429       2.920       2.556       2.127       1.546      0.9628      0.5591      0.2812       0.000    
   6    10.00       9.943       9.881       9.830       9.768       9.700       9.644       9.602       9.557       9.523    
        9.495       9.461       9.407       9.333       9.260       9.180       9.098       9.032       8.977       8.921    
        8.882       8.845       8.803       8.734       8.626       8.514       8.423       8.317       8.125       7.726    
        7.178       6.696       6.399       6.199       5.960       5.543       5.079       4.737       4.512       4.262    
        3.978       3.592       3.086       2.632       2.101       1.479      0.8633      0.4917      0.2747       0.000    
   7    10.00       9.927       9.868       9.819       9.760       9.710       9.658       9.614       9.576       9.539    
        9.503       9.454       9.389       9.317       9.252       9.185       9.095       9.006       8.946       8.901    
        8.862       8.823       8.779       8.688       8.577       8.487       8.387       8.219       7.898       7.393    
        6.874       6.498       6.313       6.157       5.855       5.444       5.137       4.837       4.592       4.418    
        4.130       3.731       3.188       2.600       1.946       1.232      0.7235      0.4992      0.2528       0.000    
   8    10.00       9.923       9.868       9.815       9.762       9.719       9.673       9.631       9.594       9.559    
        9.506       9.436       9.367       9.305       9.243       9.162       9.054       8.971       8.926       8.882    
        8.837       8.803       8.732       8.635       8.537       8.431       8.245       7.979       7.543       7.107    
        6.719       6.420       6.279       6.089       5.750       5.433       5.177       4.957       4.759       4.552    
        4.253       3.760       3.133       2.462       1.718       1.112      0.7657      0.4896      0.2256       0.000    
   9    10.00       9.926       9.865       9.813       9.775       9.738       9.694       9.653       9.611       9.571    
        9.504       9.419       9.347       9.284       9.210       9.119       9.022       8.948       8.901       8.855    
        8.814       8.759       8.662       8.573       8.472       8.326       8.058       7.659       7.230       6.916    
        6.610       6.389       6.231       5.979       5.666       5.420       5.238       5.068       4.898       4.673    
        4.302       3.787       3.120       2.370       1.685       1.151      0.7810      0.4857      0.2408       0.000    
  10    10.00       9.925       9.863       9.820       9.786       9.751       9.713       9.676       9.628       9.565    
        9.483       9.398       9.328       9.259       9.181       9.076       8.979       8.920       8.877       8.831    
        8.789       8.700       8.596       8.497       8.360       8.143       7.746       7.314       6.973       6.737    
        6.552       6.370       6.160       5.902       5.634       5.446       5.307       5.167       4.976       4.715    
        4.317       3.752       3.038       2.368       1.825       1.319      0.8363      0.5156      0.2717       0.000    
  11    10.00       9.915       9.867       9.832       9.798       9.767       9.733       9.684       9.616       9.546    
        9.464       9.381       9.314       9.222       9.117       9.025       8.955       8.899       8.856       8.806    
        8.730       8.616       8.468       8.323       8.085       7.764       7.411       7.121       6.845       6.672    
        6.517       6.281       6.043       5.851       5.671       5.529       5.391       5.210       4.985       4.678    
        4.304       3.804       3.080       2.467       1.985       1.499      0.9632      0.5106      0.2050       0.000    
  12    10.00       9.923       9.875       9.838       9.809       9.777       9.739       9.674       9.595       9.522    
        9.445       9.362       9.273       9.162       9.075       8.996       8.923       8.876       8.822       8.746    
        8.600       8.407       8.200       7.985       7.691       7.444       7.255       6.959       6.729       6.589    
        6.424       6.206       6.014       5.851       5.731       5.604       5.437       5.233       4.963       4.641    
        4.272       3.782       3.117       2.569       2.132       1.606       1.013      0.4827      0.1605       0.000    
  13    10.00       9.940       9.896       9.855       9.819       9.782       9.727       9.648       9.565       9.494    
        9.413       9.330       9.237       9.123       9.023       8.944       8.892       8.832       8.757       8.582    
        8.318       8.083       7.858       7.589       7.358       7.245       7.014       6.745       6.624       6.506    
        6.327       6.138       5.998       5.882       5.783       5.665       5.474       5.219       4.953       4.619    
        4.251       3.751       3.065       2.552       2.146       1.571      0.9431      0.4365      0.1261       0.000    
  14    10.00       9.956       9.917       9.874       9.831       9.774       9.695       9.612       9.538       9.457    
        9.377       9.300       9.190       9.064       8.973       8.909       8.826       8.736       8.562       8.254    
        7.972       7.760       7.464       7.242       7.136       7.008       6.771       6.613       6.495       6.381    
        6.228       6.106       6.020       5.922       5.818       5.696       5.482       5.201       4.916       4.575    
        4.179       3.576       2.929       2.515       2.017       1.466      0.9304      0.3988      0.1027       0.000    
  15    10.00       9.965       9.926       9.883       9.833       9.749       9.652       9.579       9.506       9.428    
        9.367       9.278       9.134       8.996       8.913       8.804       8.693       8.579       8.286       7.924    
        7.689       7.388       7.115       7.030       6.962       6.797       6.605       6.451       6.365       6.280    
        6.184       6.111       6.042       5.959       5.848       5.698       5.451       5.131       4.831       4.516    
        4.087       3.498       2.938       2.380       1.780       1.286      0.8003      0.3516      0.1055       0.000    
  16    10.00       9.975       9.936       9.885       9.809       9.705       9.622       9.563       9.497       9.417    
        9.335       9.210       9.044       8.912       8.793       8.664       8.587       8.360       7.933       7.596    
        7.356       7.058       6.953       6.899       6.777       6.569       6.414       6.339       6.307       6.248    
        6.175       6.115       6.060       5.973       5.839       5.653       5.357       5.065       4.827       4.487    
        3.998       3.364       2.720       2.101       1.591       1.103      0.6821      0.3338      0.1126       0.000    
  17    10.00       9.975       9.934       9.868       9.774       9.671       9.601       9.546       9.473       9.385    
        9.251       9.092       8.942       8.798       8.651       8.526       8.340       7.957       7.554       7.318    
        7.080       6.894       6.811       6.692       6.500       6.344       6.301       6.289       6.267       6.214    
        6.156       6.109       6.058       5.979       5.792       5.535       5.280       5.071       4.844       4.415    
        3.761       3.115       2.502       1.896       1.361      0.8926      0.5718      0.2986      0.1227       0.000    
  18    10.00       9.969       9.922       9.843       9.726       9.643       9.588       9.515       9.432       9.309    
        9.148       9.006       8.855       8.662       8.468       8.262       7.988       7.596       7.291       7.082    
        6.886       6.728       6.602       6.432       6.300       6.258       6.246       6.240       6.212       6.172    
        6.135       6.096       6.038       5.906       5.710       5.491       5.272       5.085       4.766       4.195    
        3.526       2.840       2.185       1.689       1.263      0.8368      0.4911      0.2470      0.1183       0.000    
  19    10.00       9.962       9.910       9.796       9.679       9.631       9.570       9.480       9.378       9.247    
        9.099       8.966       8.748       8.456       8.224       8.010       7.676       7.314       7.106       6.944    
        6.741       6.549       6.411       6.279       6.213       6.197       6.190       6.171       6.140       6.123    
        6.102       6.068       5.984       5.853       5.685       5.471       5.271       5.002       4.459       3.866    
        3.328       2.618       1.997       1.603       1.180      0.7550      0.4434      0.2514      0.1288       0.000    
  20    10.00       9.954       9.867       9.751       9.665       9.613       9.548       9.452       9.338       9.219    
        9.068       8.865       8.540       8.248       8.040       7.773       7.438       7.239       7.048       6.822    
        6.597       6.425       6.281       6.187       6.139       6.115       6.086       6.077       6.062       6.062    
        6.054       6.023       5.935       5.810       5.636       5.448       5.198       4.710       4.122       3.649    
        3.066       2.413       1.949       1.567       1.141      0.6697      0.3871      0.2617      0.1348       0.000    
  21    10.00       9.923       9.831       9.734       9.650       9.595       9.525       9.414       9.301       9.188    
        8.987       8.677       8.344       8.121       7.887       7.605       7.354       7.164       6.934       6.693    
        6.478       6.309       6.182       6.084       6.018       5.969       5.953       5.961       5.963       5.976    
        5.987       5.950       5.859       5.737       5.561       5.352       4.962       4.447       3.980       3.405    
        2.853       2.338       1.946       1.561      0.9606      0.5419      0.3917      0.2955      0.1417       0.000    
  22    10.00       9.903       9.793       9.706       9.640       9.574       9.476       9.372       9.273       9.117    
        8.859       8.508       8.241       8.038       7.776       7.485       7.243       7.040       6.828       6.600    
        6.385       6.207       6.038       5.887       5.801       5.782       5.800       5.816       5.852       5.875    
        5.891       5.849       5.772       5.643       5.462       5.254       4.852       4.350       3.740       3.185    
        2.785       2.374       1.902       1.257      0.7484      0.5399      0.4104      0.2732      0.1010       0.000    
  23    10.00       9.875       9.768       9.700       9.630       9.532       9.425       9.347       9.221       9.026    
        8.723       8.421       8.228       7.976       7.634       7.342       7.151       6.985       6.787       6.541    
        6.315       6.106       5.864       5.581       5.374       5.419       5.554       5.644       5.723       5.776    
        5.792       5.761       5.686       5.567       5.394       5.157       4.749       4.129       3.518       3.126    
        2.757       2.239       1.564       1.012      0.7361      0.5504      0.3936      0.2322      9.2386E-02   0.000    
  24    10.00       9.856       9.778       9.697       9.598       9.496       9.413       9.327       9.206       8.947    
        8.661       8.437       8.220       7.883       7.506       7.296       7.134       6.971       6.745       6.514    
        6.313       6.048       5.661       5.124       4.468       4.740       5.145       5.426       5.591       5.674    
        5.708       5.683       5.619       5.487       5.297       5.002       4.488       3.902       3.442       3.033    
        2.581       2.005       1.403      0.9807      0.7372      0.5360      0.3590      0.2515      0.1234       0.000    
  25    10.00       9.873       9.793       9.690       9.587       9.493       9.411       9.331       9.149       8.897    
        8.676       8.450       8.165       7.794       7.514       7.326       7.144       6.948       6.742       6.543    
        6.312       6.058       5.507       4.483       2.657       4.023       4.766       5.207       5.477       5.613    
        5.653       5.633       5.558       5.379       5.123       4.725       4.244       3.784       3.389       2.910    
        2.365       1.815       1.307      0.9717      0.7640      0.5569      0.3782      0.2633      0.1639       0.000    
  26    10.00       9.890       9.812       9.704       9.593       9.508       9.420       9.302       9.121       8.945    
        8.739       8.430       8.080       7.779       7.568       7.386       7.175       6.934       6.734       6.568    
        6.376       6.126       5.652       4.902       4.070       4.428       4.881       5.211       5.461       5.602    
        5.626       5.593       5.479       5.266       4.984       4.605       4.075       3.640       3.272       2.693    
        2.078       1.597       1.294       1.061      0.8238      0.6011      0.4122      0.2860      0.1671       0.000    
  27    10.00       9.912       9.817       9.719       9.624       9.522       9.423       9.304       9.155       8.994    
        8.733       8.383       8.077       7.828       7.651       7.442       7.167       6.917       6.761       6.625    
        6.476       6.247       5.889       5.450       5.006       4.985       5.161       5.373       5.553       5.625    
        5.616       5.567       5.434       5.203       4.874       4.363       3.867       3.511       2.957       2.351    
        1.876       1.567       1.339       1.135      0.9006      0.6561      0.4477      0.3148      0.1986       0.000    
  28    10.00       9.918       9.839       9.751       9.657       9.549       9.440       9.325       9.195       9.006    
        8.699       8.395       8.128       7.885       7.698       7.492       7.269       7.029       6.812       6.672    
        6.553       6.391       6.162       5.847       5.580       5.426       5.466       5.598       5.654       5.661    
        5.620       5.544       5.379       5.089       4.656       4.131       3.708       3.211       2.637       2.210    
        1.872       1.610       1.388       1.174      0.9462      0.7159      0.5079      0.3584      0.2048       0.000    
  29    10.00       9.924       9.847       9.777       9.685       9.587       9.481       9.362       9.219       8.966    
        8.679       8.421       8.167       7.963       7.750       7.533       7.330       7.139       6.933       6.751    
        6.624       6.500       6.350       6.164       5.913       5.791       5.778       5.781       5.774       5.713    
        5.624       5.479       5.284       4.909       4.387       3.932       3.509       2.995       2.538       2.226    
        1.952       1.666       1.413       1.209       1.004      0.7570      0.5366      0.3745      0.2076       0.000    
  30    10.00       9.934       9.870       9.808       9.726       9.630       9.534       9.399       9.206       8.975    
        8.685       8.404       8.197       7.992       7.790       7.595       7.432       7.257       7.057       6.864    
        6.710       6.605       6.479       6.355       6.219       6.104       6.058       5.966       5.890       5.767    
        5.593       5.352       5.082       4.692       4.289       3.866       3.417       2.938       2.593       2.311    
        1.986       1.699       1.479       1.246       1.002      0.7832      0.5719      0.3977      0.2234       0.000    
  31    10.00       9.947       9.894       9.836       9.774       9.696       9.587       9.419       9.199       8.955    
        8.676       8.425       8.235       8.035       7.848       7.668       7.508       7.371       7.171       6.978    
        6.838       6.727       6.628       6.528       6.449       6.341       6.226       6.119       5.972       5.780    
        5.503       5.201       4.930       4.619       4.238       3.792       3.339       2.949       2.707       2.438    
        2.077       1.762       1.511       1.276       1.048      0.8238      0.6060      0.4184      0.2166       0.000    
  32    10.00       9.954       9.916       9.865       9.806       9.733       9.616       9.422       9.221       8.990    
        8.703       8.471       8.292       8.086       7.887       7.740       7.601       7.440       7.279       7.092    
        6.946       6.829       6.735       6.642       6.554       6.469       6.336       6.190       5.995       5.730    
        5.418       5.126       4.852       4.557       4.184       3.784       3.430       3.099       2.821       2.512    
        2.179       1.868       1.604       1.333       1.085      0.8956      0.6680      0.4104      0.1833       0.000    
  33    10.00       9.961       9.931       9.888       9.828       9.749       9.595       9.404       9.242       9.035    
        8.773       8.553       8.342       8.110       7.933       7.812       7.692       7.527       7.351       7.188    
        7.027       6.906       6.788       6.688       6.613       6.528       6.374       6.167       5.957       5.706    
        5.396       5.138       4.854       4.496       4.150       3.797       3.510       3.249       2.933       2.593    
        2.305       2.011       1.721       1.441       1.181      0.9694      0.7145      0.4123      0.1792       0.000    
  34    10.00       9.968       9.945       9.908       9.829       9.712       9.570       9.438       9.270       9.066    
        8.842       8.602       8.364       8.137       7.994       7.895       7.766       7.608       7.409       7.249    
        7.102       6.949       6.823       6.727       6.649       6.533       6.349       6.153       5.932       5.639    
        5.367       5.161       4.880       4.535       4.194       3.871       3.601       3.341       3.016       2.709    
        2.453       2.170       1.854       1.575       1.311       1.068      0.7639      0.4638      0.2432       0.000    
  35    10.00       9.973       9.945       9.892       9.794       9.680       9.578       9.463       9.328       9.106    
        8.860       8.618       8.377       8.192       8.067       7.962       7.823       7.655       7.461       7.271    
        7.112       6.966       6.838       6.747       6.661       6.543       6.345       6.112       5.853       5.548    
        5.344       5.127       4.845       4.593       4.310       3.972       3.675       3.458       3.152       2.826    
        2.579       2.289       1.972       1.698       1.424       1.158      0.8755      0.5802      0.2870       0.000    
  36    10.00       9.967       9.921       9.863       9.773       9.666       9.581       9.482       9.334       9.119    
        8.850       8.592       8.422       8.283       8.160       8.025       7.861       7.688       7.478       7.224    
        7.049       6.938       6.829       6.751       6.666       6.516       6.292       6.037       5.719       5.448    
        5.276       5.100       4.860       4.619       4.383       4.082       3.788       3.558       3.286       2.930    
        2.659       2.336       2.020       1.811       1.545       1.249      0.9657      0.6571      0.3215       0.000    
  37    10.00       9.949       9.900       9.842       9.753       9.660       9.563       9.467       9.331       9.080    
        8.798       8.603       8.504       8.370       8.216       8.080       7.875       7.659       7.387       7.125    
        7.014       6.920       6.814       6.729       6.627       6.443       6.215       5.878       5.589       5.416    
        5.269       5.083       4.847       4.659       4.419       4.136       3.906       3.685       3.380       2.989    
        2.634       2.331       2.112       1.895       1.628       1.347       1.064      0.7247      0.3979       0.000    
  38    10.00       9.941       9.879       9.817       9.739       9.650       9.547       9.443       9.286       9.050    
        8.839       8.686       8.559       8.437       8.268       8.044       7.810       7.556       7.251       7.079    
        6.990       6.866       6.754       6.684       6.565       6.360       6.024       5.710       5.561       5.431    
        5.278       5.081       4.870       4.684       4.450       4.193       4.005       3.781       3.391       2.961    
        2.653       2.401       2.183       1.958       1.722       1.437       1.155      0.8382      0.4142       0.000    
  39    10.00       9.924       9.863       9.807       9.732       9.630       9.521       9.413       9.265       9.072    
        8.907       8.789       8.647       8.476       8.227       7.942       7.678       7.380       7.165       7.057    
        6.919       6.774       6.689       6.620       6.504       6.229       5.894       5.710       5.576       5.441    
        5.269       5.084       4.881       4.695       4.518       4.308       4.061       3.790       3.406       3.006    
        2.681       2.420       2.248       2.061       1.795       1.512       1.226      0.8724      0.4088       0.000    
  40    10.00       9.916       9.857       9.800       9.722       9.617       9.510       9.403       9.272       9.110    
        8.974       8.870       8.691       8.420       8.105       7.819       7.539       7.285       7.131       6.992    
        6.831       6.706       6.636       6.548       6.392       6.146       5.924       5.742       5.593       5.453    
        5.284       5.087       4.896       4.741       4.586       4.374       4.089       3.805       3.415       2.987    
        2.682       2.476       2.287       2.126       1.847       1.537       1.276      0.8749      0.4073       0.000    
  41    10.00       9.923       9.855       9.786       9.702       9.619       9.529       9.430       9.299       9.152    
        9.022       8.893       8.657       8.333       8.008       7.741       7.468       7.227       7.075       6.923    
        6.761       6.653       6.573       6.469       6.308       6.126       5.978       5.802       5.616       5.452    
        5.291       5.113       4.931       4.797       4.633       4.421       4.136       3.744       3.297       2.967    
        2.746       2.547       2.351       2.128       1.837       1.541       1.317      0.9321      0.4226       0.000    
  42    10.00       9.923       9.845       9.784       9.722       9.645       9.549       9.437       9.325       9.211    
        9.043       8.818       8.543       8.233       7.931       7.689       7.421       7.187       7.023       6.852    
        6.702       6.605       6.517       6.422       6.279       6.153       6.028       5.829       5.620       5.473    
        5.342       5.148       4.954       4.823       4.672       4.446       4.096       3.634       3.225       2.979    
        2.813       2.634       2.385       2.088       1.809       1.577       1.345      0.9831      0.4850       0.000    
  43    10.00       9.916       9.850       9.798       9.749       9.674       9.580       9.472       9.347       9.169    
        8.948       8.716       8.459       8.137       7.866       7.642       7.401       7.166       6.957       6.797    
        6.663       6.567       6.492       6.415       6.294       6.165       6.038       5.831       5.650       5.542    
        5.383       5.174       4.986       4.852       4.675       4.383       3.978       3.541       3.243       3.054    
        2.877       2.672       2.366       2.061       1.815       1.591       1.391      0.9970      0.4556       0.000    
  44    10.00       9.915       9.858       9.811       9.752       9.696       9.617       9.472       9.285       9.078    
        8.893       8.658       8.348       8.078       7.862       7.605       7.341       7.091       6.885       6.745    
        6.647       6.565       6.491       6.411       6.307       6.174       6.004       5.833       5.711       5.583    
        5.439       5.257       5.043       4.839       4.623       4.295       3.871       3.511       3.281       3.099    
        2.920       2.677       2.381       2.117       1.853       1.614       1.368      0.9001      0.4139       0.000    
  45    10.00       9.925       9.871       9.810       9.752       9.703       9.574       9.401       9.211       9.033    
        8.880       8.566       8.244       8.048       7.815       7.528       7.242       7.011       6.845       6.734    
        6.660       6.583       6.501       6.407       6.292       6.162       6.018       5.887       5.780       5.647    
        5.481       5.292       5.071       4.814       4.556       4.203       3.805       3.522       3.347       3.159    
        2.921       2.642       2.389       2.148       1.915       1.676       1.278      0.7999      0.4025       0.000    
  46    10.00       9.939       9.882       9.810       9.743       9.647       9.506       9.374       9.215       9.025    
        8.771       8.471       8.213       7.964       7.716       7.438       7.172       7.002       6.866       6.760    
        6.686       6.611       6.507       6.390       6.278       6.169       6.056       5.936       5.828       5.710    
        5.560       5.362       5.111       4.805       4.437       4.071       3.777       3.577       3.393       3.198    
        2.916       2.620       2.367       2.177       1.954       1.643       1.190      0.7640      0.3766       0.000    
  47    10.00       9.950       9.896       9.825       9.710       9.583       9.462       9.359       9.212       8.961    
        8.656       8.382       8.157       7.949       7.686       7.384       7.149       6.988       6.879       6.791    
        6.710       6.621       6.513       6.390       6.281       6.195       6.102       5.983       5.859       5.744    
        5.613       5.447       5.114       4.685       4.326       4.063       3.817       3.644       3.482       3.212    
        2.868       2.554       2.326       2.195       1.948       1.567       1.125      0.7370      0.3723       0.000    
  48    10.00       9.955       9.899       9.793       9.675       9.565       9.444       9.339       9.191       8.907    
        8.575       8.345       8.161       7.906       7.599       7.327       7.151       6.988       6.880       6.811    
        6.728       6.623       6.506       6.393       6.304       6.236       6.152       6.021       5.877       5.753    
        5.616       5.415       5.068       4.713       4.393       4.103       3.883       3.706       3.499       3.156    
        2.786       2.544       2.363       2.130       1.806       1.468       1.089      0.7422      0.3929       0.000    
  49    10.00       9.953       9.868       9.766       9.677       9.558       9.440       9.330       9.143       8.842    
        8.545       8.326       8.095       7.837       7.606       7.353       7.107       6.956       6.890       6.825    
        6.747       6.625       6.490       6.392       6.324       6.274       6.177       6.026       5.875       5.762    
        5.614       5.350       5.044       4.793       4.524       4.204       3.920       3.702       3.458       3.090    
        2.792       2.580       2.330       1.994       1.707       1.402       1.071      0.7544      0.3842       0.000    
  50    10.00       9.941       9.847       9.753       9.682       9.572       9.441       9.300       9.098       8.860    
        8.560       8.265       8.026       7.820       7.634       7.350       7.071       6.956       6.898       6.835    
        6.760       6.623       6.479       6.390       6.336       6.289       6.182       6.019       5.875       5.760    
        5.598       5.321       5.085       4.870       4.579       4.260       3.972       3.683       3.332       3.007    
        2.849       2.626       2.260       1.922       1.682       1.391       1.104      0.7368      0.3027       0.000    

 HEAD WILL BE SAVED ON UNIT   51 AT END OF TIME STEP  39, STRESS PERIOD    2

 DRAWDOWN WILL BE SAVED ON UNIT   52 AT END OF TIME STEP  39, STRESS PERIOD    2
1
  VOLUMETRIC BUDGET FOR ENTIRE MODEL AT END OF TIME STEP 39 IN STRESS PERIOD   2
  ------------------------------------------------------------------------------

     CUMULATIVE VOLUMES      L**3       RATES FOR THIS TIME STEP      L**3/T
     ------------------                 ------------------------

           IN:                                      IN:
           ---                                      ---
             STORAGE =       19286.8867               STORAGE =         478.4386
       CONSTANT HEAD =       21805.7012         CONSTANT HEAD =         561.0040
               WELLS =           0.0000                 WELLS =           0.0000

            TOTAL IN =       41092.5859              TOTAL IN =        1039.4426

          OUT:                                     OUT:
          ----                                     ----
             STORAGE =       9.3745E-03               STORAGE =           0.0000
       CONSTANT HEAD =       21592.5742         CONSTANT HEAD =         539.4426
               WELLS =       19500.0000                 WELLS =         500.0000

           TOTAL OUT =       41092.5820             TOTAL OUT =        1039.4426

            IN - OUT =       3.9063E-03              IN - OUT =           0.0000

 PERCENT DISCREPANCY =           0.00     PERCENT DISCREPANCY =           0.00






          TIME SUMMARY AT END OF TIME STEP  39 IN STRESS PERIOD    2
                    SECONDS     MINUTES      HOURS       DAYS        YEARS
                    -----------------------------------------------------------
   TIME STEP LENGTH  86400.      1440.0      24.000      1.0000     2.73785E-03
 STRESS PERIOD TIME 3.36960E+06  56160.      936.00      39.000     0.10678    
         TOTAL TIME 3.45600E+06  57600.      960.00      40.000     0.10951    
1
 
 SOLVING FOR HEAD 

 OUTPUT CONTROL FOR STRESS PERIOD    2   TIME STEP  40
    SAVE HEAD FOR ALL LAYERS
    SAVE DRAWDOWN FOR ALL LAYERS
    SAVE BUDGET
    PRINT HEAD FOR ALL LAYERS
    PRINT BUDGET
 UBDSV1 SAVING "         STORAGE" ON UNIT  53 AT TIME STEP 40, STRESS PERIOD   2
 UBDSV2 SAVING "   CONSTANT HEAD" ON UNIT  53 AT TIME STEP 40, STRESS PERIOD   2
 UBDSV1 SAVING "FLOW RIGHT FACE " ON UNIT  53 AT TIME STEP 40, STRESS PERIOD   2
 UBDSV1 SAVING "FLOW FRONT FACE " ON UNIT  53 AT TIME STEP 40, STRESS PERIOD   2
1
              HEAD IN LAYER   1 AT END OF TIME STEP  40 IN STRESS PERIOD    2
  ---------------------------------------------------------------------------

            1           2           3           4           5           6           7           8           9          10
           11          12          13          14          15          16          17          18          19          20
           21          22          23          24          25          26          27          28          29          30
           31          32          33          34          35          36          37          38          39          40
           41          42          43          44          45          46          47          48          49          50
 ........................................................................................................................
   1    10.00       9.958       9.901       9.844       9.796       9.738       9.681       9.621       9.541       9.475    
        9.436       9.397       9.353       9.310       9.241       9.165       9.082       9.017       8.988       8.955    
        8.915       8.880       8.844       8.799       8.736       8.626       8.493       8.363       8.215       8.066    
        7.855       7.520       7.125       6.709       6.243       5.813       5.448       5.109       4.645       4.142    
        3.713       3.290       2.705       2.151       1.763       1.374       1.047      0.8368      0.5549       0.000    
   2    10.00       9.958       9.906       9.849       9.798       9.745       9.681       9.603       9.526       9.475    
        9.440       9.405       9.372       9.318       9.238       9.160       9.084       9.020       8.988       8.952    
        8.910       8.884       8.855       8.807       8.735       8.630       8.496       8.361       8.221       8.073    
        7.845       7.500       7.085       6.615       6.145       5.729       5.403       5.070       4.600       4.129    
        3.696       3.186       2.658       2.219       1.834       1.471       1.099      0.7947      0.4243       0.000    
   3    10.00       9.954       9.904       9.852       9.801       9.739       9.660       9.585       9.536       9.490    
        9.450       9.419       9.386       9.336       9.256       9.158       9.078       9.026       8.986       8.949    
        8.915       8.886       8.858       8.798       8.720       8.614       8.487       8.386       8.238       8.062    
        7.769       7.368       6.927       6.472       6.038       5.651       5.359       5.017       4.509       4.050    
        3.690       3.225       2.738       2.316       1.915       1.549       1.109      0.6819      0.2999       0.000    
   4    10.00       9.957       9.907       9.850       9.787       9.715       9.640       9.585       9.543       9.499    
        9.464       9.438       9.402       9.347       9.274       9.167       9.078       9.029       8.987       8.952    
        8.913       8.879       8.843       8.780       8.701       8.598       8.475       8.361       8.247       8.027    
        7.649       7.160       6.689       6.341       6.016       5.641       5.266       4.832       4.403       4.067    
        3.746       3.334       2.847       2.430       2.009       1.566       1.058      0.6056      0.2820       0.000    
   5    10.00       9.954       9.901       9.836       9.770       9.704       9.638       9.591       9.548       9.510    
        9.480       9.452       9.410       9.346       9.261       9.164       9.088       9.034       8.991       8.942    
        8.897       8.863       8.817       8.752       8.678       8.561       8.439       8.341       8.226       7.948    
        7.453       6.918       6.529       6.264       5.970       5.590       5.162       4.734       4.429       4.144    
        3.854       3.428       2.919       2.555       2.127       1.546      0.9625      0.5589      0.2811       0.000    
   6    10.00       9.943       9.880       9.829       9.767       9.699       9.643       9.601       9.556       9.522    
        9.493       9.460       9.405       9.331       9.258       9.178       9.095       9.029       8.974       8.918    
        8.879       8.842       8.800       8.731       8.622       8.510       8.419       8.313       8.122       7.722    
        7.174       6.691       6.394       6.194       5.956       5.539       5.075       4.734       4.509       4.259    
        3.976       3.590       3.084       2.631       2.101       1.478      0.8630      0.4915      0.2746       0.000    
   7    10.00       9.927       9.868       9.818       9.759       9.710       9.657       9.613       9.575       9.538    
        9.501       9.453       9.387       9.315       9.249       9.183       9.092       9.003       8.943       8.898    
        8.859       8.819       8.776       8.684       8.573       8.483       8.383       8.215       7.894       7.388    
        6.869       6.492       6.308       6.152       5.851       5.440       5.133       4.834       4.589       4.415    
        4.128       3.728       3.186       2.599       1.946       1.232      0.7233      0.4991      0.2527       0.000    
   8    10.00       9.922       9.868       9.815       9.762       9.718       9.672       9.630       9.593       9.558    
        9.505       9.435       9.365       9.303       9.241       9.159       9.051       8.968       8.922       8.879    
        8.833       8.799       8.729       8.631       8.532       8.426       8.240       7.973       7.537       7.100    
        6.713       6.414       6.273       6.083       5.744       5.427       5.172       4.953       4.755       4.548    
        4.251       3.758       3.131       2.461       1.717       1.112      0.7655      0.4895      0.2255       0.000    
   9    10.00       9.926       9.865       9.812       9.774       9.737       9.693       9.652       9.610       9.570    
        9.502       9.417       9.345       9.281       9.207       9.116       9.019       8.945       8.897       8.852    
        8.810       8.755       8.658       8.568       8.467       8.321       8.052       7.653       7.222       6.909    
        6.603       6.382       6.224       5.972       5.660       5.414       5.232       5.063       4.894       4.669    
        4.299       3.785       3.118       2.370       1.684       1.151      0.7808      0.4855      0.2407       0.000    
  10    10.00       9.925       9.862       9.819       9.786       9.750       9.712       9.675       9.627       9.563    
        9.481       9.396       9.326       9.256       9.178       9.073       8.975       8.916       8.873       8.827    
        8.785       8.695       8.591       8.492       8.354       8.136       7.738       7.305       6.965       6.728    
        6.544       6.362       6.152       5.894       5.627       5.439       5.301       5.161       4.972       4.711    
        4.313       3.749       3.036       2.367       1.824       1.319      0.8361      0.5155      0.2716       0.000    
  11    10.00       9.915       9.867       9.831       9.797       9.766       9.732       9.683       9.615       9.544    
        9.462       9.379       9.311       9.219       9.113       9.021       8.951       8.894       8.852       8.801    
        8.725       8.611       8.462       8.317       8.077       7.755       7.402       7.111       6.835       6.662    
        6.507       6.272       6.034       5.842       5.663       5.522       5.384       5.204       4.980       4.674    
        4.301       3.801       3.078       2.466       1.985       1.499      0.9630      0.5105      0.2049       0.000    
  12    10.00       9.922       9.875       9.837       9.809       9.776       9.738       9.673       9.593       9.520    
        9.443       9.360       9.270       9.159       9.071       8.992       8.919       8.871       8.818       8.741    
        8.595       8.400       8.193       7.976       7.681       7.433       7.243       6.948       6.718       6.579    
        6.413       6.196       6.005       5.842       5.723       5.596       5.430       5.227       4.958       4.637    
        4.268       3.779       3.115       2.568       2.131       1.606       1.013      0.4826      0.1605       0.000    
  13    10.00       9.940       9.896       9.855       9.819       9.781       9.726       9.646       9.563       9.492    
        9.411       9.327       9.233       9.119       9.019       8.940       8.887       8.827       8.752       8.575    
        8.310       8.074       7.848       7.578       7.346       7.232       7.001       6.732       6.611       6.494    
        6.316       6.126       5.987       5.872       5.773       5.657       5.467       5.212       4.948       4.615    
        4.247       3.749       3.063       2.551       2.146       1.571      0.9430      0.4364      0.1261       0.000    
  14    10.00       9.956       9.916       9.873       9.830       9.773       9.694       9.610       9.536       9.455    
        9.374       9.297       9.186       9.059       8.968       8.904       8.820       8.730       8.555       8.245    
        7.961       7.748       7.451       7.228       7.121       6.994       6.756       6.598       6.480       6.367    
        6.215       6.094       6.008       5.911       5.808       5.687       5.474       5.194       4.910       4.571    
        4.176       3.573       2.927       2.514       2.017       1.465      0.9303      0.3988      0.1026       0.000    
  15    10.00       9.965       9.925       9.882       9.833       9.748       9.651       9.577       9.503       9.425    
        9.364       9.275       9.129       8.991       8.908       8.798       8.686       8.571       8.276       7.912    
        7.676       7.374       7.100       7.014       6.947       6.781       6.589       6.435       6.349       6.265    
        6.170       6.097       6.029       5.947       5.837       5.688       5.443       5.124       4.825       4.511    
        4.083       3.496       2.936       2.380       1.779       1.286      0.8001      0.3515      0.1055       0.000    
  16    10.00       9.974       9.936       9.885       9.808       9.704       9.621       9.561       9.494       9.414    
        9.332       9.206       9.039       8.906       8.786       8.657       8.579       8.350       7.921       7.582    
        7.341       7.041       6.937       6.883       6.761       6.552       6.397       6.323       6.291       6.232    
        6.160       6.101       6.046       5.960       5.827       5.643       5.349       5.058       4.821       4.482    
        3.994       3.361       2.719       2.101       1.591       1.103      0.6819      0.3338      0.1126       0.000    
  17    10.00       9.974       9.934       9.868       9.773       9.669       9.599       9.544       9.471       9.381    
        9.247       9.087       8.936       8.791       8.642       8.517       8.329       7.944       7.539       7.302    
        7.063       6.876       6.793       6.674       6.483       6.326       6.284       6.272       6.250       6.198    
        6.141       6.094       6.044       5.966       5.780       5.525       5.271       5.064       4.837       4.410    
        3.758       3.113       2.501       1.895       1.360      0.8924      0.5717      0.2985      0.1226       0.000    
  18    10.00       9.969       9.921       9.842       9.724       9.641       9.586       9.512       9.428       9.305    
        9.143       9.000       8.848       8.653       8.458       8.251       7.975       7.581       7.274       7.064    
        6.868       6.710       6.584       6.414       6.282       6.239       6.227       6.222       6.195       6.155    
        6.119       6.081       6.023       5.892       5.698       5.480       5.263       5.077       4.760       4.190    
        3.524       2.838       2.184       1.688       1.262      0.8367      0.4910      0.2469      0.1183       0.000    
  19    10.00       9.962       9.910       9.795       9.678       9.629       9.568       9.477       9.374       9.242    
        9.094       8.960       8.740       8.445       8.212       7.997       7.661       7.297       7.088       6.926    
        6.722       6.530       6.392       6.260       6.194       6.178       6.172       6.152       6.122       6.105    
        6.085       6.051       5.969       5.839       5.673       5.461       5.262       4.994       4.453       3.863    
        3.325       2.617       1.996       1.602       1.180      0.7548      0.4433      0.2514      0.1288       0.000    
  20    10.00       9.953       9.866       9.749       9.664       9.611       9.546       9.449       9.335       9.214    
        9.062       8.858       8.530       8.236       8.027       7.759       7.422       7.221       7.030       6.803    
        6.578       6.406       6.262       6.168       6.120       6.096       6.066       6.058       6.043       6.043    
        6.036       6.006       5.919       5.795       5.624       5.437       5.189       4.703       4.118       3.646    
        3.064       2.412       1.948       1.567       1.141      0.6696      0.3870      0.2616      0.1348       0.000    
  21    10.00       9.923       9.830       9.732       9.649       9.593       9.523       9.410       9.297       9.183    
        8.980       8.668       8.333       8.108       7.873       7.589       7.337       7.146       6.915       6.674    
        6.458       6.289       6.163       6.064       5.998       5.949       5.933       5.941       5.944       5.957    
        5.968       5.932       5.842       5.722       5.548       5.341       4.954       4.441       3.976       3.402    
        2.851       2.337       1.946       1.560      0.9604      0.5418      0.3916      0.2955      0.1417       0.000    
  22    10.00       9.903       9.792       9.705       9.638       9.572       9.473       9.369       9.268       9.112    
        8.852       8.497       8.228       8.025       7.760       7.468       7.225       7.021       6.809       6.581    
        6.366       6.187       6.018       5.866       5.781       5.762       5.779       5.796       5.832       5.855    
        5.872       5.830       5.755       5.628       5.449       5.242       4.844       4.345       3.737       3.183    
        2.783       2.373       1.902       1.256      0.7483      0.5399      0.4104      0.2732      0.1010       0.000    
  23    10.00       9.875       9.766       9.698       9.628       9.530       9.421       9.343       9.216       9.020    
        8.714       8.410       8.216       7.962       7.618       7.325       7.133       6.967       6.768       6.522    
        6.295       6.085       5.844       5.560       5.354       5.398       5.533       5.623       5.703       5.755    
        5.772       5.743       5.669       5.551       5.381       5.145       4.741       4.124       3.515       3.124    
        2.756       2.239       1.564       1.012      0.7360      0.5503      0.3936      0.2322      9.2377E-02   0.000    
  24    10.00       9.855       9.777       9.695       9.596       9.493       9.410       9.323       9.200       8.939    
        8.651       8.426       8.208       7.869       7.489       7.278       7.116       6.953       6.726       6.494    
        6.293       6.028       5.641       5.103       4.447       4.719       5.123       5.405       5.570       5.653    
        5.688       5.664       5.602       5.472       5.284       4.991       4.481       3.898       3.440       3.032    
        2.580       2.004       1.402      0.9806      0.7371      0.5359      0.3589      0.2515      0.1234       0.000    
  25    10.00       9.872       9.792       9.689       9.585       9.490       9.407       9.327       9.143       8.889    
        8.667       8.439       8.152       7.779       7.498       7.309       7.126       6.930       6.723       6.523    
        6.292       6.038       5.486       4.462       2.634       4.001       4.744       5.185       5.456       5.592    
        5.633       5.614       5.541       5.364       5.110       4.716       4.237       3.780       3.387       2.908    
        2.364       1.814       1.307      0.9716      0.7639      0.5568      0.3782      0.2633      0.1639       0.000    
  26    10.00       9.889       9.811       9.702       9.591       9.505       9.416       9.298       9.116       8.938    
        8.731       8.419       8.067       7.764       7.552       7.369       7.157       6.915       6.715       6.548    
        6.356       6.106       5.631       4.881       4.047       4.406       4.858       5.189       5.439       5.581    
        5.606       5.575       5.462       5.252       4.972       4.596       4.069       3.636       3.270       2.692    
        2.078       1.597       1.294       1.061      0.8237      0.6011      0.4121      0.2860      0.1671       0.000    
  27    10.00       9.912       9.816       9.718       9.621       9.519       9.420       9.300       9.149       8.987    
        8.724       8.372       8.064       7.813       7.636       7.426       7.150       6.898       6.743       6.606    
        6.456       6.227       5.869       5.429       4.985       4.962       5.138       5.351       5.532       5.604    
        5.597       5.549       5.418       5.189       4.863       4.356       3.863       3.508       2.955       2.350    
        1.875       1.567       1.339       1.135      0.9005      0.6560      0.4477      0.3148      0.1986       0.000    
  28    10.00       9.917       9.839       9.750       9.655       9.547       9.437       9.320       9.189       8.999    
        8.690       8.384       8.115       7.871       7.683       7.477       7.252       7.012       6.793       6.653    
        6.534       6.371       6.142       5.826       5.559       5.404       5.444       5.576       5.633       5.641    
        5.602       5.526       5.364       5.076       4.647       4.125       3.704       3.209       2.636       2.209    
        1.871       1.610       1.387       1.174      0.9461      0.7158      0.5079      0.3584      0.2048       0.000    
  29    10.00       9.923       9.846       9.776       9.683       9.585       9.478       9.358       9.214       8.959    
        8.671       8.411       8.155       7.950       7.736       7.518       7.314       7.122       6.915       6.732    
        6.605       6.481       6.330       6.144       5.892       5.770       5.756       5.760       5.754       5.694    
        5.606       5.464       5.271       4.899       4.381       3.927       3.506       2.994       2.537       2.226    
        1.952       1.666       1.413       1.209       1.003      0.7569      0.5366      0.3744      0.2076       0.000    
  30    10.00       9.933       9.869       9.807       9.724       9.628       9.531       9.395       9.201       8.969    
        8.677       8.394       8.186       7.979       7.777       7.580       7.417       7.241       7.040       6.847    
        6.692       6.587       6.460       6.335       6.199       6.084       6.039       5.947       5.871       5.750    
        5.578       5.339       5.072       4.685       4.284       3.863       3.415       2.936       2.592       2.310    
        1.986       1.699       1.479       1.246       1.001      0.7832      0.5719      0.3976      0.2234       0.000    
  31    10.00       9.947       9.894       9.835       9.773       9.695       9.585       9.416       9.194       8.949    
        8.668       8.415       8.224       8.023       7.835       7.654       7.493       7.356       7.155       6.962    
        6.821       6.709       6.610       6.510       6.431       6.323       6.208       6.101       5.955       5.765    
        5.490       5.192       4.923       4.613       4.234       3.790       3.338       2.948       2.706       2.437    
        2.077       1.762       1.511       1.275       1.048      0.8237      0.6059      0.4184      0.2166       0.000    
  32    10.00       9.954       9.916       9.865       9.805       9.731       9.614       9.418       9.216       8.984    
        8.695       8.462       8.282       8.075       7.875       7.727       7.588       7.426       7.264       7.076    
        6.930       6.812       6.719       6.626       6.537       6.452       6.319       6.174       5.980       5.718    
        5.408       5.118       4.846       4.553       4.180       3.782       3.428       3.098       2.820       2.512    
        2.179       1.868       1.604       1.333       1.085      0.8956      0.6680      0.4104      0.1833       0.000    
  33    10.00       9.961       9.931       9.887       9.827       9.747       9.593       9.401       9.238       9.030    
        8.766       8.545       8.332       8.099       7.922       7.800       7.679       7.514       7.337       7.173    
        7.012       6.890       6.772       6.673       6.597       6.513       6.359       6.153       5.945       5.696    
        5.389       5.132       4.849       4.492       4.147       3.795       3.509       3.248       2.932       2.592    
        2.305       2.011       1.721       1.441       1.181      0.9694      0.7144      0.4123      0.1792       0.000    
  34    10.00       9.967       9.945       9.908       9.829       9.711       9.568       9.435       9.266       9.061    
        8.835       8.594       8.355       8.127       7.984       7.884       7.754       7.595       7.396       7.236    
        7.088       6.935       6.809       6.713       6.635       6.520       6.337       6.142       5.922       5.632    
        5.361       5.156       4.876       4.532       4.192       3.870       3.600       3.340       3.015       2.709    
        2.453       2.170       1.854       1.574       1.311       1.068      0.7639      0.4637      0.2432       0.000    
  35    10.00       9.973       9.945       9.891       9.794       9.679       9.576       9.461       9.325       9.102    
        8.854       8.612       8.370       8.183       8.058       7.952       7.813       7.644       7.449       7.259    
        7.100       6.954       6.826       6.735       6.649       6.532       6.334       6.103       5.845       5.543    
        5.340       5.123       4.842       4.591       4.308       3.971       3.674       3.457       3.152       2.826    
        2.579       2.289       1.972       1.698       1.424       1.158      0.8755      0.5802      0.2870       0.000    
  36    10.00       9.967       9.921       9.863       9.772       9.665       9.579       9.479       9.332       9.116    
        8.845       8.586       8.415       8.276       8.152       8.016       7.851       7.678       7.468       7.213    
        7.039       6.929       6.819       6.742       6.656       6.507       6.284       6.030       5.714       5.444    
        5.273       5.097       4.858       4.617       4.382       4.081       3.787       3.557       3.285       2.930    
        2.659       2.336       2.020       1.811       1.545       1.249      0.9657      0.6571      0.3215       0.000    
  37    10.00       9.948       9.900       9.841       9.752       9.659       9.561       9.465       9.329       9.077    
        8.794       8.597       8.498       8.363       8.208       8.072       7.866       7.650       7.378       7.117    
        7.006       6.912       6.806       6.721       6.619       6.435       6.208       5.873       5.586       5.413    
        5.267       5.081       4.846       4.658       4.419       4.135       3.905       3.685       3.380       2.989    
        2.634       2.331       2.112       1.895       1.628       1.347       1.064      0.7247      0.3979       0.000    
  38    10.00       9.941       9.878       9.817       9.739       9.649       9.546       9.442       9.284       9.047    
        8.836       8.681       8.554       8.431       8.262       8.037       7.803       7.549       7.244       7.073    
        6.983       6.859       6.748       6.677       6.559       6.354       6.020       5.707       5.559       5.429    
        5.276       5.080       4.869       4.683       4.449       4.192       4.004       3.780       3.391       2.961    
        2.653       2.401       2.183       1.958       1.722       1.437       1.155      0.8381      0.4142       0.000    
  39    10.00       9.924       9.863       9.807       9.732       9.630       9.519       9.412       9.263       9.069    
        8.904       8.786       8.642       8.471       8.221       7.937       7.673       7.375       7.160       7.051    
        6.913       6.768       6.684       6.615       6.499       6.225       5.892       5.708       5.574       5.440    
        5.267       5.083       4.880       4.694       4.518       4.308       4.061       3.789       3.406       3.006    
        2.681       2.420       2.248       2.061       1.795       1.512       1.226      0.8724      0.4087       0.000    
  40    10.00       9.916       9.856       9.800       9.721       9.616       9.509       9.402       9.270       9.108    
        8.972       8.867       8.687       8.416       8.101       7.815       7.535       7.281       7.127       6.988    
        6.827       6.702       6.632       6.544       6.389       6.143       5.922       5.740       5.591       5.451    
        5.283       5.086       4.895       4.740       4.586       4.373       4.088       3.805       3.415       2.986    
        2.682       2.476       2.287       2.126       1.847       1.537       1.276      0.8749      0.4073       0.000    
  41    10.00       9.923       9.854       9.786       9.701       9.618       9.528       9.429       9.298       9.150    
        9.020       8.890       8.654       8.330       8.005       7.738       7.465       7.223       7.071       6.919    
        6.758       6.650       6.570       6.466       6.306       6.124       5.976       5.800       5.614       5.451    
        5.290       5.112       4.930       4.796       4.632       4.420       4.135       3.744       3.297       2.967    
        2.746       2.546       2.351       2.128       1.837       1.541       1.316      0.9321      0.4226       0.000    
  42    10.00       9.923       9.844       9.784       9.722       9.645       9.549       9.436       9.324       9.210    
        9.041       8.816       8.541       8.231       7.929       7.686       7.419       7.185       7.020       6.849    
        6.699       6.603       6.515       6.420       6.277       6.151       6.027       5.827       5.619       5.472    
        5.341       5.147       4.953       4.823       4.671       4.445       4.095       3.634       3.225       2.979    
        2.812       2.634       2.385       2.088       1.809       1.577       1.345      0.9831      0.4850       0.000    
  43    10.00       9.916       9.850       9.798       9.748       9.674       9.579       9.471       9.346       9.167    
        8.947       8.715       8.458       8.135       7.864       7.640       7.400       7.163       6.955       6.795    
        6.661       6.565       6.491       6.413       6.292       6.163       6.036       5.830       5.649       5.541    
        5.382       5.173       4.986       4.852       4.675       4.382       3.978       3.540       3.242       3.054    
        2.877       2.672       2.366       2.061       1.815       1.591       1.391      0.9970      0.4556       0.000    
  44    10.00       9.915       9.858       9.811       9.751       9.695       9.617       9.471       9.284       9.077    
        8.892       8.657       8.346       8.076       7.861       7.603       7.340       7.089       6.883       6.743    
        6.645       6.563       6.489       6.409       6.305       6.173       6.002       5.831       5.710       5.582    
        5.438       5.256       5.042       4.838       4.622       4.295       3.871       3.511       3.280       3.099    
        2.920       2.676       2.381       2.117       1.853       1.614       1.368      0.9001      0.4139       0.000    
  45    10.00       9.925       9.871       9.810       9.752       9.703       9.573       9.400       9.210       9.032    
        8.880       8.565       8.243       8.047       7.814       7.527       7.241       7.010       6.843       6.733    
        6.659       6.581       6.500       6.406       6.291       6.161       6.017       5.886       5.779       5.646    
        5.480       5.292       5.071       4.813       4.555       4.203       3.805       3.522       3.347       3.159    
        2.921       2.642       2.389       2.148       1.915       1.676       1.278      0.7999      0.4025       0.000    
  46    10.00       9.939       9.882       9.810       9.743       9.646       9.505       9.374       9.215       9.024    
        8.770       8.471       8.212       7.963       7.715       7.437       7.171       7.001       6.865       6.759    
        6.684       6.609       6.506       6.389       6.277       6.168       6.055       5.935       5.827       5.709    
        5.560       5.361       5.110       4.805       4.436       4.071       3.776       3.576       3.393       3.198    
        2.916       2.620       2.367       2.177       1.954       1.642       1.190      0.7640      0.3766       0.000    
  47    10.00       9.950       9.896       9.825       9.710       9.582       9.462       9.359       9.212       8.960    
        8.656       8.381       8.156       7.948       7.685       7.383       7.148       6.987       6.878       6.789    
        6.708       6.620       6.512       6.389       6.280       6.194       6.101       5.982       5.858       5.743    
        5.613       5.446       5.113       4.685       4.325       4.063       3.816       3.644       3.482       3.212    
        2.868       2.554       2.326       2.195       1.948       1.567       1.125      0.7369      0.3723       0.000    
  48    10.00       9.955       9.899       9.793       9.675       9.565       9.444       9.339       9.191       8.906    
        8.574       8.345       8.160       7.905       7.598       7.326       7.150       6.987       6.879       6.810    
        6.727       6.621       6.504       6.392       6.303       6.235       6.151       6.020       5.876       5.752    
        5.615       5.415       5.068       4.713       4.392       4.102       3.882       3.706       3.499       3.155    
        2.786       2.544       2.363       2.130       1.805       1.468       1.089      0.7422      0.3929       0.000    
  49    10.00       9.953       9.868       9.765       9.676       9.558       9.440       9.330       9.143       8.842    
        8.545       8.325       8.095       7.837       7.605       7.352       7.106       6.955       6.889       6.824    
        6.746       6.624       6.489       6.391       6.323       6.272       6.176       6.025       5.874       5.761    
        5.613       5.350       5.044       4.792       4.524       4.204       3.920       3.701       3.458       3.090    
        2.792       2.580       2.330       1.994       1.706       1.402       1.071      0.7544      0.3842       0.000    
  50    10.00       9.941       9.847       9.753       9.682       9.571       9.441       9.300       9.098       8.860    
        8.559       8.265       8.025       7.819       7.633       7.349       7.070       6.955       6.897       6.834    
        6.759       6.622       6.477       6.389       6.335       6.288       6.181       6.018       5.874       5.759    
        5.597       5.320       5.085       4.869       4.579       4.260       3.972       3.683       3.332       3.006    
        2.849       2.626       2.260       1.922       1.681       1.391       1.104      0.7368      0.3026       0.000    

 HEAD WILL BE SAVED ON UNIT   51 AT END OF TIME STEP  40, STRESS PERIOD    2

 DRAWDOWN WILL BE SAVED ON UNIT   52 AT END OF TIME STEP  40, STRESS PERIOD    2
1
  VOLUMETRIC BUDGET FOR ENTIRE MODEL AT END OF TIME STEP 40 IN STRESS PERIOD   2
  ------------------------------------------------------------------------------

     CUMULATIVE VOLUMES      L**3       RATES FOR THIS TIME STEP      L**3/T
     ------------------                 ------------------------

           IN:                                      IN:
           ---                                      ---
             STORAGE =       19763.8027               STORAGE =         476.9169
       CONSTANT HEAD =       22368.1699         CONSTANT HEAD =         562.4682
               WELLS =           0.0000                 WELLS =           0.0000

            TOTAL IN =       42131.9727              TOTAL IN =        1039.3851

          OUT:                                     OUT:
          ----                                     ----
             STORAGE =       9.3745E-03               STORAGE =           0.0000
       CONSTANT HEAD =       22131.9590         CONSTANT HEAD =         539.3856
               WELLS =       20000.0000                 WELLS =         500.0000

           TOTAL OUT =       42131.9688             TOTAL OUT =        1039.3856

            IN - OUT =       3.9063E-03              IN - OUT =      -4.8828E-04

 PERCENT DISCREPANCY =           0.00     PERCENT DISCREPANCY =           0.00






          TIME SUMMARY AT END OF TIME STEP  40 IN STRESS PERIOD    2
                    SECONDS     MINUTES      HOURS       DAYS        YEARS
                    -----------------------------------------------------------
   TIME STEP LENGTH  86400.      1440.0      24.000      1.0000     2.73785E-03
 STRESS PERIOD TIME 3.45600E+06  57600.      960.00      40.000     0.10951    
         TOTAL TIME 3.54240E+06  59040.      984.00      41.000     0.11225    
1
 
 SOLVING FOR HEAD 

 OUTPUT CONTROL FOR STRESS PERIOD    2   TIME STEP  41
    SAVE HEAD FOR ALL LAYERS
    SAVE DRAWDOWN FOR ALL LAYERS
    SAVE BUDGET
    PRINT HEAD FOR ALL LAYERS
    PRINT BUDGET
 UBDSV1 SAVING "         STORAGE" ON UNIT  53 AT TIME STEP 41, STRESS PERIOD   2
 UBDSV2 SAVING "   CONSTANT HEAD" ON UNIT  53 AT TIME STEP 41, STRESS PERIOD   2
 UBDSV1 SAVING "FLOW RIGHT FACE " ON UNIT  53 AT TIME STEP 41, STRESS PERIOD   2
 UBDSV1 SAVING "FLOW FRONT FACE " ON UNIT  53 AT TIME STEP 41, STRESS PERIOD   2
1
              HEAD IN LAYER   1 AT END OF TIME STEP  41 IN STRESS PERIOD    2
  ---------------------------------------------------------------------------

            1           2           3           4           5           6           7           8           9          10
           11          12          13          14          15          16          17          18          19          20
           21          22          23          24          25          26          27          28          29          30
           31          32          33          34          35          36          37          38          39          40
           41          42          43          44          45          46          47          48          49          50
 ........................................................................................................................
   1    10.00       9.958       9.900       9.843       9.795       9.737       9.680       9.620       9.539       9.473    
        9.434       9.395       9.352       9.308       9.239       9.163       9.080       9.014       8.985       8.952    
        8.912       8.877       8.842       8.796       8.733       8.623       8.490       8.361       8.212       8.063    
        7.853       7.518       7.123       6.707       6.241       5.811       5.446       5.107       4.644       4.141    
        3.712       3.289       2.704       2.150       1.762       1.373       1.047      0.8366      0.5548       0.000    
   2    10.00       9.958       9.906       9.849       9.798       9.744       9.680       9.601       9.524       9.473    
        9.438       9.403       9.370       9.316       9.236       9.157       9.081       9.017       8.986       8.949    
        8.908       8.881       8.853       8.804       8.732       8.627       8.493       8.358       8.219       8.071    
        7.843       7.497       7.082       6.613       6.143       5.727       5.401       5.068       4.599       4.127    
        3.695       3.185       2.658       2.219       1.833       1.471       1.098      0.7945      0.4242       0.000    
   3    10.00       9.953       9.904       9.851       9.800       9.738       9.659       9.584       9.535       9.488    
        9.448       9.417       9.384       9.334       9.254       9.156       9.076       9.023       8.983       8.946    
        8.912       8.883       8.855       8.795       8.717       8.611       8.484       8.383       8.235       8.060    
        7.766       7.365       6.924       6.469       6.036       5.649       5.357       5.015       4.507       4.048    
        3.688       3.224       2.737       2.316       1.915       1.549       1.108      0.6817      0.2998       0.000    
   4    10.00       9.957       9.907       9.850       9.786       9.714       9.639       9.583       9.541       9.498    
        9.463       9.437       9.400       9.345       9.272       9.165       9.076       9.027       8.984       8.949    
        8.910       8.876       8.840       8.777       8.698       8.595       8.472       8.358       8.244       8.024    
        7.646       7.157       6.686       6.338       6.014       5.639       5.263       4.829       4.401       4.065    
        3.745       3.333       2.845       2.429       2.009       1.565       1.057      0.6054      0.2820       0.000    
   5    10.00       9.954       9.901       9.835       9.770       9.703       9.637       9.590       9.546       9.509    
        9.478       9.451       9.408       9.344       9.259       9.161       9.085       9.031       8.988       8.939    
        8.894       8.860       8.814       8.749       8.675       8.558       8.436       8.338       8.223       7.944    
        7.449       6.914       6.526       6.261       5.967       5.587       5.160       4.732       4.427       4.142    
        3.852       3.426       2.918       2.554       2.126       1.545      0.9622      0.5588      0.2811       0.000    
   6    10.00       9.943       9.880       9.829       9.767       9.698       9.642       9.600       9.555       9.520    
        9.492       9.458       9.403       9.329       9.256       9.175       9.093       9.027       8.971       8.915    
        8.875       8.838       8.796       8.728       8.619       8.507       8.416       8.309       8.118       7.718    
        7.169       6.686       6.390       6.190       5.952       5.536       5.072       4.730       4.506       4.256    
        3.973       3.588       3.083       2.630       2.100       1.478      0.8628      0.4914      0.2745       0.000    
   7    10.00       9.927       9.868       9.818       9.758       9.709       9.656       9.611       9.573       9.537    
        9.500       9.451       9.385       9.313       9.247       9.180       9.089       9.000       8.940       8.895    
        8.856       8.816       8.772       8.681       8.569       8.479       8.379       8.210       7.889       7.383    
        6.864       6.487       6.303       6.147       5.846       5.435       5.128       4.830       4.585       4.411    
        4.125       3.726       3.185       2.598       1.945       1.231      0.7231      0.4989      0.2527       0.000    
   8    10.00       9.922       9.867       9.814       9.761       9.717       9.671       9.629       9.592       9.557    
        9.503       9.433       9.363       9.300       9.238       9.156       9.048       8.964       8.919       8.875    
        8.829       8.795       8.725       8.627       8.528       8.422       8.235       7.968       7.531       7.094    
        6.706       6.408       6.267       6.077       5.739       5.422       5.167       4.948       4.750       4.545    
        4.248       3.755       3.130       2.460       1.717       1.112      0.7653      0.4894      0.2255       0.000    
   9    10.00       9.926       9.864       9.812       9.774       9.736       9.693       9.650       9.609       9.568    
        9.500       9.415       9.343       9.279       9.205       9.113       9.015       8.941       8.893       8.848    
        8.806       8.751       8.654       8.563       8.462       8.315       8.046       7.646       7.215       6.901    
        6.595       6.375       6.217       5.966       5.654       5.408       5.226       5.058       4.889       4.665    
        4.296       3.782       3.117       2.369       1.684       1.151      0.7806      0.4854      0.2407       0.000    
  10    10.00       9.925       9.862       9.819       9.785       9.749       9.711       9.674       9.626       9.562    
        9.480       9.394       9.324       9.253       9.175       9.069       8.972       8.912       8.869       8.823    
        8.780       8.691       8.586       8.487       8.348       8.130       7.731       7.297       6.956       6.719    
        6.535       6.354       6.144       5.887       5.620       5.433       5.295       5.156       4.967       4.706    
        4.310       3.747       3.035       2.366       1.824       1.318      0.8359      0.5154      0.2716       0.000    
  11    10.00       9.915       9.867       9.830       9.796       9.765       9.731       9.682       9.614       9.542    
        9.460       9.376       9.309       9.216       9.110       9.017       8.947       8.890       8.848       8.797    
        8.720       8.605       8.456       8.310       8.070       7.746       7.392       7.101       6.825       6.652    
        6.498       6.263       6.025       5.834       5.655       5.515       5.378       5.198       4.974       4.669    
        4.297       3.799       3.077       2.465       1.984       1.498      0.9628      0.5104      0.2049       0.000    
  12    10.00       9.922       9.875       9.837       9.808       9.775       9.738       9.672       9.591       9.518    
        9.441       9.357       9.267       9.155       9.068       8.988       8.914       8.867       8.813       8.736    
        8.589       8.393       8.185       7.968       7.670       7.422       7.232       6.936       6.706       6.568    
        6.403       6.186       5.995       5.833       5.714       5.588       5.423       5.221       4.953       4.632    
        4.265       3.777       3.114       2.567       2.130       1.605       1.012      0.4825      0.1605       0.000    
  13    10.00       9.939       9.895       9.854       9.818       9.780       9.725       9.645       9.562       9.489    
        9.408       9.324       9.230       9.115       9.014       8.935       8.882       8.822       8.746       8.569    
        8.302       8.064       7.838       7.566       7.333       7.219       6.988       6.719       6.598       6.482    
        6.304       6.115       5.977       5.862       5.764       5.648       5.459       5.205       4.942       4.610    
        4.244       3.746       3.062       2.550       2.145       1.570      0.9428      0.4364      0.1261       0.000    
  14    10.00       9.956       9.916       9.873       9.829       9.772       9.693       9.608       9.534       9.452    
        9.371       9.294       9.182       9.054       8.963       8.899       8.814       8.724       8.547       8.236    
        7.951       7.737       7.438       7.214       7.107       6.979       6.741       6.584       6.466       6.353    
        6.202       6.081       5.996       5.901       5.798       5.677       5.466       5.187       4.904       4.566    
        4.172       3.571       2.926       2.513       2.016       1.465      0.9301      0.3987      0.1026       0.000    
  15    10.00       9.965       9.925       9.882       9.832       9.747       9.649       9.575       9.501       9.422    
        9.361       9.271       9.125       8.986       8.902       8.792       8.679       8.564       8.267       7.901    
        7.663       7.360       7.085       6.999       6.931       6.765       6.573       6.419       6.334       6.251    
        6.156       6.084       6.016       5.936       5.826       5.678       5.434       5.117       4.820       4.506    
        4.079       3.493       2.935       2.379       1.779       1.285      0.8000      0.3515      0.1055       0.000    
  16    10.00       9.974       9.935       9.884       9.807       9.703       9.619       9.559       9.492       9.411    
        9.329       9.202       9.033       8.900       8.779       8.649       8.571       8.341       7.908       7.568    
        7.326       7.025       6.920       6.867       6.744       6.535       6.380       6.306       6.275       6.217    
        6.145       6.087       6.033       5.948       5.816       5.633       5.340       5.051       4.815       4.477    
        3.991       3.359       2.717       2.100       1.590       1.103      0.6818      0.3337      0.1125       0.000    
  17    10.00       9.974       9.933       9.867       9.772       9.667       9.597       9.542       9.468       9.378    
        9.243       9.082       8.930       8.784       8.634       8.508       8.319       7.932       7.525       7.286    
        7.047       6.859       6.776       6.657       6.465       6.309       6.266       6.254       6.234       6.182    
        6.126       6.080       6.031       5.953       5.768       5.515       5.262       5.056       4.831       4.405    
        3.755       3.111       2.500       1.894       1.360      0.8922      0.5715      0.2985      0.1226       0.000    
  18    10.00       9.969       9.921       9.842       9.723       9.640       9.584       9.510       9.425       9.301    
        9.138       8.994       8.841       8.645       8.449       8.240       7.962       7.565       7.258       7.047    
        6.850       6.692       6.566       6.396       6.263       6.221       6.209       6.204       6.177       6.138    
        6.103       6.066       6.009       5.879       5.686       5.470       5.254       5.069       4.754       4.186    
        3.521       2.836       2.184       1.687       1.262      0.8365      0.4909      0.2469      0.1183       0.000    
  19    10.00       9.961       9.909       9.795       9.676       9.627       9.566       9.475       9.371       9.238    
        9.088       8.953       8.732       8.435       8.201       7.984       7.646       7.281       7.071       6.908    
        6.704       6.512       6.373       6.241       6.175       6.160       6.153       6.134       6.104       6.088    
        6.068       6.036       5.954       5.826       5.661       5.450       5.252       4.986       4.448       3.859    
        3.323       2.615       1.996       1.602       1.180      0.7546      0.4432      0.2514      0.1287       0.000    
  20    10.00       9.953       9.866       9.748       9.662       9.609       9.543       9.446       9.331       9.210    
        9.056       8.850       8.520       8.224       8.014       7.744       7.405       7.204       7.012       6.784    
        6.559       6.387       6.243       6.149       6.101       6.077       6.048       6.040       6.024       6.025    
        6.019       5.990       5.904       5.781       5.611       5.426       5.180       4.696       4.113       3.643    
        3.062       2.411       1.947       1.567       1.141      0.6695      0.3870      0.2616      0.1348       0.000    
  21    10.00       9.923       9.829       9.731       9.647       9.591       9.520       9.407       9.292       9.178    
        8.974       8.659       8.321       8.095       7.859       7.573       7.320       7.129       6.897       6.655    
        6.439       6.270       6.143       6.044       5.978       5.929       5.913       5.922       5.924       5.938    
        5.950       5.914       5.826       5.708       5.535       5.330       4.945       4.435       3.972       3.400    
        2.849       2.336       1.945       1.560      0.9602      0.5417      0.3916      0.2954      0.1416       0.000    
  22    10.00       9.902       9.791       9.703       9.637       9.570       9.470       9.365       9.264       9.106    
        8.844       8.487       8.216       8.011       7.745       7.452       7.208       7.003       6.790       6.562    
        6.346       6.167       5.998       5.847       5.761       5.742       5.760       5.776       5.813       5.835    
        5.853       5.812       5.738       5.613       5.436       5.231       4.835       4.339       3.733       3.181    
        2.782       2.372       1.901       1.256      0.7482      0.5398      0.4103      0.2731      0.1010       0.000    
  23    10.00       9.874       9.765       9.697       9.626       9.527       9.418       9.339       9.212       9.013    
        8.705       8.398       8.203       7.948       7.602       7.308       7.115       6.949       6.749       6.502    
        6.275       6.066       5.824       5.540       5.333       5.377       5.513       5.603       5.682       5.735    
        5.753       5.724       5.652       5.536       5.368       5.134       4.733       4.119       3.513       3.122    
        2.754       2.238       1.563       1.012      0.7359      0.5502      0.3935      0.2321      9.2367E-02   0.000    
  24    10.00       9.855       9.776       9.694       9.594       9.490       9.406       9.319       9.195       8.932    
        8.642       8.415       8.195       7.854       7.473       7.261       7.098       6.934       6.707       6.475    
        6.273       6.008       5.620       5.083       4.426       4.698       5.102       5.384       5.549       5.633    
        5.668       5.646       5.585       5.456       5.271       4.980       4.473       3.893       3.437       3.030    
        2.579       2.004       1.402      0.9804      0.7370      0.5359      0.3589      0.2514      0.1234       0.000    
  25    10.00       9.871       9.791       9.687       9.583       9.488       9.404       9.323       9.138       8.882    
        8.658       8.428       8.139       7.764       7.481       7.292       7.108       6.911       6.704       6.504    
        6.272       6.018       5.466       4.441       2.612       3.979       4.722       5.164       5.435       5.571    
        5.613       5.595       5.524       5.349       5.098       4.706       4.231       3.775       3.384       2.906    
        2.363       1.814       1.307      0.9714      0.7638      0.5568      0.3781      0.2633      0.1639       0.000    
  26    10.00       9.888       9.810       9.701       9.589       9.502       9.413       9.293       9.110       8.931    
        8.722       8.408       8.054       7.749       7.536       7.352       7.139       6.897       6.696       6.529    
        6.337       6.086       5.611       4.860       4.026       4.384       4.836       5.167       5.418       5.560    
        5.587       5.556       5.445       5.238       4.961       4.588       4.063       3.632       3.267       2.690    
        2.077       1.596       1.294       1.061      0.8236      0.6010      0.4121      0.2860      0.1671       0.000    
  27    10.00       9.911       9.815       9.716       9.619       9.516       9.416       9.295       9.144       8.981    
        8.716       8.361       8.051       7.799       7.621       7.410       7.132       6.880       6.724       6.587    
        6.437       6.207       5.849       5.408       4.963       4.940       5.116       5.329       5.510       5.584    
        5.578       5.531       5.402       5.175       4.852       4.349       3.858       3.504       2.953       2.349    
        1.875       1.567       1.339       1.135      0.9004      0.6559      0.4476      0.3147      0.1985       0.000    
  28    10.00       9.917       9.838       9.748       9.653       9.544       9.433       9.316       9.184       8.993    
        8.682       8.373       8.103       7.857       7.668       7.461       7.235       6.994       6.775       6.635    
        6.516       6.352       6.122       5.806       5.538       5.383       5.422       5.554       5.612       5.621    
        5.583       5.509       5.349       5.064       4.638       4.119       3.700       3.206       2.634       2.208    
        1.871       1.610       1.387       1.174      0.9460      0.7157      0.5078      0.3583      0.2048       0.000    
  29    10.00       9.923       9.845       9.774       9.681       9.583       9.475       9.354       9.209       8.953    
        8.662       8.400       8.144       7.937       7.722       7.503       7.298       7.106       6.898       6.714    
        6.587       6.462       6.311       6.124       5.872       5.749       5.736       5.739       5.734       5.675    
        5.589       5.448       5.257       4.889       4.375       3.923       3.503       2.992       2.536       2.225    
        1.951       1.665       1.413       1.209       1.003      0.7568      0.5365      0.3744      0.2076       0.000    
  30    10.00       9.933       9.868       9.806       9.723       9.625       9.528       9.392       9.196       8.962    
        8.669       8.384       8.174       7.967       7.763       7.566       7.401       7.225       7.023       6.829    
        6.674       6.569       6.442       6.316       6.180       6.064       6.019       5.927       5.853       5.733    
        5.562       5.326       5.062       4.678       4.279       3.859       3.412       2.935       2.591       2.310    
        1.985       1.698       1.478       1.246       1.001      0.7831      0.5718      0.3976      0.2234       0.000    
  31    10.00       9.947       9.893       9.834       9.772       9.693       9.583       9.412       9.189       8.943    
        8.660       8.405       8.214       8.012       7.823       7.641       7.479       7.341       7.139       6.945    
        6.803       6.692       6.592       6.492       6.414       6.306       6.190       6.083       5.938       5.750    
        5.478       5.182       4.915       4.608       4.230       3.787       3.336       2.947       2.705       2.437    
        2.076       1.761       1.511       1.275       1.048      0.8237      0.6059      0.4184      0.2166       0.000    
  32    10.00       9.953       9.915       9.864       9.804       9.730       9.611       9.415       9.212       8.979    
        8.688       8.453       8.272       8.064       7.863       7.714       7.574       7.412       7.249       7.060    
        6.914       6.796       6.702       6.610       6.521       6.436       6.302       6.159       5.966       5.706    
        5.399       5.111       4.839       4.548       4.177       3.780       3.427       3.096       2.819       2.511    
        2.178       1.867       1.603       1.333       1.085      0.8955      0.6679      0.4104      0.1832       0.000    
  33    10.00       9.961       9.931       9.887       9.826       9.746       9.591       9.398       9.234       9.024    
        8.759       8.536       8.323       8.089       7.911       7.788       7.666       7.501       7.323       7.159    
        6.997       6.874       6.757       6.658       6.582       6.497       6.344       6.140       5.934       5.686    
        5.381       5.126       4.844       4.489       4.144       3.793       3.507       3.246       2.932       2.592    
        2.305       2.010       1.721       1.441       1.181      0.9693      0.7144      0.4123      0.1792       0.000    
  34    10.00       9.967       9.944       9.907       9.828       9.710       9.566       9.432       9.263       9.056    
        8.829       8.587       8.347       8.117       7.973       7.873       7.743       7.583       7.383       7.222    
        7.075       6.921       6.795       6.699       6.621       6.507       6.325       6.130       5.913       5.624    
        5.355       5.151       4.872       4.529       4.190       3.868       3.599       3.339       3.015       2.708    
        2.452       2.170       1.853       1.574       1.311       1.068      0.7639      0.4637      0.2432       0.000    
  35    10.00       9.973       9.944       9.891       9.793       9.677       9.575       9.459       9.322       9.098    
        8.849       8.605       8.362       8.175       8.048       7.942       7.802       7.633       7.437       7.247    
        7.088       6.943       6.815       6.724       6.638       6.520       6.324       6.094       5.838       5.537    
        5.336       5.120       4.840       4.589       4.307       3.970       3.674       3.457       3.152       2.826    
        2.579       2.289       1.972       1.698       1.424       1.158      0.8755      0.5802      0.2870       0.000    
  36    10.00       9.967       9.921       9.862       9.771       9.664       9.578       9.477       9.329       9.112    
        8.840       8.581       8.409       8.268       8.143       8.007       7.841       7.668       7.457       7.203    
        7.030       6.919       6.809       6.732       6.646       6.498       6.276       6.023       5.709       5.440    
        5.270       5.095       4.856       4.616       4.381       4.081       3.787       3.557       3.285       2.930    
        2.659       2.336       2.020       1.811       1.545       1.249      0.9657      0.6571      0.3215       0.000    
  37    10.00       9.948       9.900       9.841       9.751       9.658       9.560       9.464       9.327       9.073    
        8.789       8.592       8.492       8.356       8.200       8.064       7.858       7.641       7.370       7.109    
        6.997       6.904       6.797       6.712       6.611       6.428       6.202       5.869       5.583       5.410    
        5.265       5.079       4.844       4.656       4.418       4.135       3.905       3.685       3.379       2.989    
        2.634       2.331       2.112       1.895       1.628       1.347       1.064      0.7247      0.3979       0.000    
  38    10.00       9.941       9.878       9.816       9.738       9.648       9.544       9.440       9.282       9.044    
        8.832       8.676       8.548       8.425       8.255       8.030       7.795       7.542       7.238       7.066    
        6.976       6.852       6.741       6.670       6.552       6.349       6.016       5.704       5.557       5.427    
        5.274       5.078       4.868       4.682       4.448       4.192       4.004       3.780       3.390       2.961    
        2.653       2.400       2.183       1.958       1.722       1.437       1.155      0.8381      0.4142       0.000    
  39    10.00       9.924       9.862       9.806       9.731       9.629       9.518       9.410       9.261       9.067    
        8.901       8.782       8.638       8.466       8.216       7.931       7.667       7.369       7.155       7.046    
        6.908       6.763       6.679       6.610       6.495       6.221       5.889       5.706       5.572       5.438    
        5.266       5.082       4.879       4.693       4.517       4.307       4.060       3.789       3.406       3.006    
        2.680       2.420       2.248       2.061       1.795       1.512       1.226      0.8724      0.4087       0.000    
  40    10.00       9.916       9.856       9.799       9.721       9.615       9.508       9.400       9.268       9.106    
        8.969       8.864       8.683       8.412       8.097       7.811       7.531       7.277       7.122       6.984    
        6.823       6.698       6.628       6.541       6.385       6.141       5.920       5.738       5.589       5.450    
        5.282       5.085       4.894       4.740       4.585       4.373       4.088       3.805       3.415       2.986    
        2.682       2.476       2.287       2.126       1.847       1.537       1.276      0.8748      0.4073       0.000    
  41    10.00       9.923       9.854       9.785       9.701       9.617       9.527       9.427       9.296       9.148    
        9.017       8.888       8.652       8.327       8.002       7.735       7.461       7.220       7.068       6.916    
        6.755       6.647       6.568       6.464       6.304       6.122       5.974       5.799       5.613       5.450    
        5.289       5.111       4.930       4.795       4.632       4.420       4.135       3.743       3.297       2.967    
        2.746       2.546       2.351       2.127       1.837       1.541       1.316      0.9321      0.4226       0.000    
  42    10.00       9.923       9.844       9.784       9.721       9.644       9.548       9.434       9.322       9.208    
        9.039       8.814       8.539       8.229       7.927       7.684       7.416       7.182       7.017       6.846    
        6.697       6.601       6.512       6.418       6.275       6.150       6.025       5.826       5.618       5.471    
        5.340       5.147       4.952       4.822       4.671       4.445       4.095       3.633       3.224       2.979    
        2.812       2.634       2.385       2.088       1.809       1.577       1.345      0.9831      0.4850       0.000    
  43    10.00       9.916       9.850       9.798       9.748       9.674       9.578       9.470       9.345       9.166    
        8.946       8.713       8.456       8.133       7.863       7.638       7.397       7.161       6.953       6.793    
        6.659       6.563       6.489       6.412       6.291       6.162       6.035       5.829       5.648       5.540    
        5.381       5.172       4.985       4.851       4.674       4.382       3.977       3.540       3.242       3.054    
        2.877       2.672       2.366       2.061       1.814       1.591       1.391      0.9970      0.4556       0.000    
  44    10.00       9.915       9.858       9.811       9.751       9.695       9.616       9.471       9.284       9.076    
        8.891       8.656       8.345       8.075       7.860       7.601       7.338       7.088       6.881       6.742    
        6.644       6.562       6.487       6.408       6.304       6.172       6.001       5.830       5.709       5.581    
        5.437       5.255       5.041       4.837       4.621       4.294       3.870       3.511       3.280       3.098    
        2.920       2.676       2.381       2.117       1.853       1.614       1.368      0.9001      0.4139       0.000    
  45    10.00       9.925       9.871       9.810       9.752       9.702       9.573       9.400       9.210       9.032    
        8.879       8.564       8.241       8.045       7.813       7.526       7.239       7.008       6.842       6.731    
        6.657       6.580       6.498       6.405       6.289       6.160       6.016       5.885       5.778       5.645    
        5.479       5.291       5.070       4.812       4.554       4.202       3.805       3.521       3.346       3.159    
        2.921       2.642       2.389       2.148       1.915       1.676       1.278      0.7998      0.4025       0.000    
  46    10.00       9.939       9.882       9.810       9.743       9.646       9.505       9.373       9.214       9.023    
        8.769       8.470       8.211       7.962       7.714       7.436       7.170       7.000       6.863       6.758    
        6.683       6.608       6.504       6.387       6.276       6.167       6.054       5.934       5.826       5.708    
        5.559       5.360       5.109       4.804       4.436       4.070       3.776       3.576       3.393       3.198    
        2.916       2.619       2.367       2.177       1.954       1.642       1.190      0.7640      0.3766       0.000    
  47    10.00       9.950       9.896       9.824       9.710       9.582       9.461       9.358       9.212       8.960    
        8.655       8.381       8.156       7.947       7.684       7.382       7.147       6.986       6.876       6.788    
        6.707       6.619       6.510       6.387       6.279       6.193       6.099       5.981       5.857       5.742    
        5.612       5.445       5.112       4.684       4.325       4.062       3.816       3.644       3.482       3.212    
        2.868       2.554       2.326       2.194       1.948       1.567       1.125      0.7369      0.3723       0.000    
  48    10.00       9.955       9.899       9.793       9.675       9.565       9.443       9.339       9.190       8.906    
        8.574       8.344       8.160       7.905       7.597       7.325       7.149       6.986       6.877       6.808    
        6.726       6.620       6.503       6.391       6.302       6.233       6.150       6.019       5.875       5.751    
        5.614       5.414       5.067       4.712       4.392       4.102       3.882       3.706       3.499       3.155    
        2.786       2.544       2.363       2.130       1.805       1.468       1.089      0.7422      0.3929       0.000    
  49    10.00       9.953       9.868       9.765       9.676       9.558       9.440       9.329       9.142       8.841    
        8.544       8.324       8.094       7.836       7.604       7.351       7.105       6.954       6.888       6.823    
        6.745       6.623       6.488       6.390       6.322       6.271       6.175       6.024       5.873       5.761    
        5.612       5.349       5.043       4.792       4.523       4.203       3.919       3.701       3.458       3.090    
        2.792       2.580       2.330       1.994       1.706       1.402       1.071      0.7544      0.3842       0.000    
  50    10.00       9.941       9.847       9.753       9.682       9.571       9.440       9.300       9.097       8.859    
        8.559       8.264       8.024       7.818       7.632       7.348       7.069       6.954       6.896       6.833    
        6.758       6.621       6.476       6.388       6.334       6.287       6.180       6.017       5.873       5.758    
        5.596       5.320       5.084       4.869       4.578       4.260       3.972       3.682       3.332       3.006    
        2.849       2.626       2.260       1.922       1.681       1.391       1.104      0.7368      0.3026       0.000    

 HEAD WILL BE SAVED ON UNIT   51 AT END OF TIME STEP  41, STRESS PERIOD    2

 DRAWDOWN WILL BE SAVED ON UNIT   52 AT END OF TIME STEP  41, STRESS PERIOD    2
1
  VOLUMETRIC BUDGET FOR ENTIRE MODEL AT END OF TIME STEP 41 IN STRESS PERIOD   2
  ------------------------------------------------------------------------------

     CUMULATIVE VOLUMES      L**3       RATES FOR THIS TIME STEP      L**3/T
     ------------------                 ------------------------

           IN:                                      IN:
           ---                                      ---
             STORAGE =       20239.1621               STORAGE =         475.3593
       CONSTANT HEAD =       22932.1348         CONSTANT HEAD =         563.9650
               WELLS =           0.0000                 WELLS =           0.0000

            TOTAL IN =       43171.2969              TOTAL IN =        1039.3243

          OUT:                                     OUT:
          ----                                     ----
             STORAGE =       9.3745E-03               STORAGE =           0.0000
       CONSTANT HEAD =       22671.2832         CONSTANT HEAD =         539.3239
               WELLS =       20500.0000                 WELLS =         500.0000

           TOTAL OUT =       43171.2930             TOTAL OUT =        1039.3240

            IN - OUT =       3.9063E-03              IN - OUT =       3.6621E-04

 PERCENT DISCREPANCY =           0.00     PERCENT DISCREPANCY =           0.00






          TIME SUMMARY AT END OF TIME STEP  41 IN STRESS PERIOD    2
                    SECONDS     MINUTES      HOURS       DAYS        YEARS
                    -----------------------------------------------------------
   TIME STEP LENGTH  86400.      1440.0      24.000      1.0000     2.73785E-03
 STRESS PERIOD TIME 3.54240E+06  59040.      984.00      41.000     0.11225    
         TOTAL TIME 3.62880E+06  60480.      1008.0      42.000     0.11499    
1
 
 SOLVING FOR HEAD 

 OUTPUT CONTROL FOR STRESS PERIOD    2   TIME STEP  42
    SAVE HEAD FOR ALL LAYERS
    SAVE DRAWDOWN FOR ALL LAYERS
    SAVE BUDGET
    PRINT HEAD FOR ALL LAYERS
    PRINT BUDGET
 UBDSV1 SAVING "         STORAGE" ON UNIT  53 AT TIME STEP 42, STRESS PERIOD   2
 UBDSV2 SAVING "   CONSTANT HEAD" ON UNIT  53 AT TIME STEP 42, STRESS PERIOD   2
 UBDSV1 SAVING "FLOW RIGHT FACE " ON UNIT  53 AT TIME STEP 42, STRESS PERIOD   2
 UBDSV1 SAVING "FLOW FRONT FACE " ON UNIT  53 AT TIME STEP 42, STRESS PERIOD   2
1
              HEAD IN LAYER   1 AT END OF TIME STEP  42 IN STRESS PERIOD    2
  ---------------------------------------------------------------------------

            1           2           3           4           5           6           7           8           9          10
           11          12          13          14          15          16          17          18          19          20
           21          22          23          24          25          26          27          28          29          30
           31          32          33          34          35          36          37          38          39          40
           41          42          43          44          45          46          47          48          49          50
 ........................................................................................................................
   1    10.00       9.958       9.900       9.843       9.795       9.736       9.679       9.619       9.538       9.472    
        9.433       9.393       9.350       9.306       9.237       9.160       9.077       9.012       8.982       8.950    
        8.909       8.874       8.839       8.793       8.730       8.620       8.487       8.358       8.209       8.061    
        7.850       7.515       7.121       6.705       6.240       5.809       5.444       5.105       4.642       4.139    
        3.711       3.288       2.704       2.150       1.762       1.373       1.047      0.8363      0.5546       0.000    
   2    10.00       9.957       9.906       9.848       9.797       9.743       9.679       9.600       9.523       9.472    
        9.437       9.401       9.368       9.314       9.234       9.155       9.079       9.015       8.983       8.946    
        8.905       8.878       8.850       8.801       8.729       8.624       8.490       8.356       8.216       8.068    
        7.840       7.495       7.080       6.611       6.141       5.726       5.399       5.067       4.597       4.126    
        3.694       3.184       2.657       2.218       1.833       1.470       1.098      0.7943      0.4241       0.000    
   3    10.00       9.953       9.904       9.851       9.799       9.737       9.658       9.583       9.533       9.487    
        9.446       9.415       9.383       9.332       9.252       9.153       9.073       9.020       8.980       8.943    
        8.909       8.880       8.852       8.792       8.714       8.608       8.481       8.380       8.232       8.057    
        7.763       7.363       6.922       6.467       6.034       5.647       5.355       5.013       4.506       4.047    
        3.687       3.222       2.736       2.315       1.914       1.548       1.108      0.6815      0.2997       0.000    
   4    10.00       9.957       9.907       9.849       9.785       9.714       9.638       9.582       9.540       9.496    
        9.461       9.435       9.398       9.343       9.270       9.163       9.073       9.024       8.981       8.946    
        8.907       8.873       8.837       8.773       8.695       8.592       8.469       8.355       8.241       8.021    
        7.643       7.154       6.683       6.335       6.011       5.636       5.261       4.827       4.399       4.063    
        3.743       3.331       2.844       2.428       2.008       1.565       1.057      0.6052      0.2819       0.000    
   5    10.00       9.954       9.901       9.835       9.769       9.702       9.636       9.589       9.545       9.507    
        9.476       9.449       9.406       9.342       9.257       9.159       9.082       9.029       8.985       8.936    
        8.891       8.857       8.811       8.746       8.672       8.555       8.432       8.334       8.220       7.941    
        7.446       6.910       6.522       6.257       5.964       5.584       5.157       4.729       4.424       4.140    
        3.849       3.424       2.916       2.552       2.125       1.545      0.9619      0.5586      0.2810       0.000    
   6    10.00       9.943       9.880       9.828       9.766       9.697       9.641       9.598       9.553       9.519    
        9.490       9.456       9.401       9.327       9.254       9.173       9.090       9.024       8.967       8.912    
        8.872       8.835       8.793       8.724       8.615       8.503       8.412       8.306       8.114       7.714    
        7.165       6.682       6.385       6.185       5.948       5.532       5.068       4.727       4.503       4.253    
        3.971       3.586       3.081       2.628       2.099       1.477      0.8625      0.4913      0.2745       0.000    
   7    10.00       9.926       9.867       9.817       9.757       9.708       9.655       9.610       9.572       9.535    
        9.498       9.449       9.383       9.311       9.245       9.178       9.086       8.997       8.937       8.891    
        8.852       8.812       8.768       8.677       8.565       8.475       8.375       8.206       7.885       7.378    
        6.858       6.481       6.297       6.142       5.841       5.430       5.124       4.826       4.582       4.408    
        4.122       3.724       3.183       2.597       1.944       1.231      0.7229      0.4988      0.2526       0.000    
   8    10.00       9.922       9.867       9.813       9.760       9.716       9.670       9.628       9.591       9.555    
        9.501       9.431       9.361       9.298       9.236       9.154       9.045       8.961       8.915       8.872    
        8.826       8.791       8.721       8.623       8.524       8.417       8.230       7.963       7.525       7.088    
        6.700       6.401       6.261       6.071       5.733       5.417       5.162       4.943       4.746       4.541    
        4.244       3.753       3.128       2.459       1.716       1.111      0.7650      0.4893      0.2254       0.000    
   9    10.00       9.926       9.864       9.811       9.773       9.736       9.692       9.649       9.607       9.567    
        9.499       9.413       9.341       9.276       9.202       9.110       9.012       8.937       8.890       8.844    
        8.802       8.747       8.649       8.559       8.457       8.310       8.040       7.639       7.207       6.893    
        6.587       6.368       6.210       5.959       5.647       5.402       5.221       5.053       4.884       4.661    
        4.293       3.780       3.115       2.368       1.683       1.150      0.7804      0.4853      0.2406       0.000    
  10    10.00       9.924       9.862       9.818       9.784       9.748       9.710       9.673       9.624       9.560    
        9.478       9.391       9.321       9.251       9.172       9.066       8.968       8.908       8.865       8.819    
        8.776       8.686       8.581       8.482       8.342       8.123       7.723       7.289       6.947       6.710    
        6.526       6.346       6.136       5.879       5.613       5.426       5.289       5.150       4.962       4.702    
        4.307       3.744       3.033       2.365       1.823       1.318      0.8356      0.5152      0.2715       0.000    
  11    10.00       9.914       9.866       9.830       9.796       9.764       9.730       9.681       9.612       9.541    
        9.458       9.374       9.306       9.213       9.106       9.013       8.942       8.886       8.843       8.792    
        8.716       8.600       8.450       8.304       8.062       7.737       7.382       7.092       6.815       6.642    
        6.488       6.254       6.017       5.826       5.647       5.508       5.371       5.192       4.969       4.665    
        4.294       3.796       3.075       2.464       1.983       1.498      0.9625      0.5103      0.2048       0.000    
  12    10.00       9.922       9.874       9.836       9.807       9.775       9.737       9.671       9.590       9.516    
        9.439       9.355       9.264       9.152       9.064       8.984       8.910       8.862       8.808       8.731    
        8.583       8.386       8.177       7.959       7.660       7.411       7.221       6.925       6.695       6.557    
        6.392       6.176       5.985       5.824       5.706       5.580       5.416       5.214       4.947       4.628    
        4.261       3.774       3.112       2.566       2.130       1.605       1.012      0.4825      0.1604       0.000    
  13    10.00       9.939       9.895       9.854       9.817       9.780       9.724       9.644       9.560       9.487    
        9.405       9.321       9.227       9.111       9.010       8.930       8.877       8.817       8.741       8.562    
        8.294       8.055       7.827       7.555       7.321       7.207       6.975       6.706       6.586       6.469    
        6.292       6.104       5.966       5.852       5.755       5.639       5.451       5.199       4.937       4.606    
        4.240       3.743       3.060       2.549       2.144       1.570      0.9426      0.4363      0.1261       0.000    
  14    10.00       9.955       9.916       9.872       9.829       9.771       9.691       9.607       9.532       9.450    
        9.368       9.291       9.178       9.050       8.958       8.893       8.809       8.718       8.540       8.227    
        7.940       7.725       7.425       7.201       7.093       6.965       6.727       6.569       6.452       6.340    
        6.189       6.069       5.985       5.890       5.788       5.668       5.458       5.180       4.898       4.561    
        4.168       3.568       2.924       2.512       2.016       1.464      0.9299      0.3986      0.1026       0.000    
  15    10.00       9.965       9.925       9.881       9.831       9.746       9.648       9.573       9.499       9.420    
        9.358       9.268       9.120       8.980       8.896       8.785       8.672       8.556       8.258       7.889    
        7.650       7.346       7.070       6.984       6.916       6.750       6.558       6.404       6.319       6.236    
        6.142       6.071       6.004       5.924       5.816       5.668       5.426       5.110       4.814       4.501    
        4.076       3.491       2.933       2.378       1.778       1.285      0.7998      0.3514      0.1054       0.000    
  16    10.00       9.974       9.935       9.884       9.806       9.701       9.617       9.557       9.490       9.408    
        9.325       9.198       9.028       8.894       8.772       8.641       8.563       8.331       7.896       7.554    
        7.311       7.009       6.904       6.851       6.728       6.519       6.363       6.290       6.259       6.202    
        6.131       6.073       6.020       5.936       5.805       5.623       5.331       5.044       4.809       4.472    
        3.987       3.356       2.716       2.099       1.590       1.102      0.6817      0.3337      0.1125       0.000    
  17    10.00       9.974       9.933       9.866       9.771       9.666       9.595       9.540       9.465       9.375    
        9.239       9.076       8.924       8.776       8.626       8.499       8.309       7.919       7.510       7.271    
        7.030       6.842       6.759       6.640       6.448       6.291       6.249       6.238       6.217       6.166    
        6.111       6.065       6.017       5.939       5.756       5.505       5.254       5.049       4.824       4.400    
        3.752       3.109       2.498       1.893       1.360      0.8920      0.5714      0.2984      0.1226       0.000    
  18    10.00       9.969       9.921       9.841       9.722       9.638       9.582       9.507       9.422       9.297    
        9.132       8.988       8.833       8.637       8.439       8.229       7.949       7.551       7.242       7.030    
        6.833       6.674       6.548       6.377       6.245       6.203       6.192       6.186       6.160       6.122    
        6.087       6.051       5.995       5.866       5.674       5.460       5.245       5.061       4.747       4.181    
        3.518       2.835       2.183       1.687       1.262      0.8362      0.4908      0.2468      0.1183       0.000    
  19    10.00       9.961       9.909       9.794       9.675       9.625       9.564       9.472       9.367       9.233    
        9.083       8.946       8.724       8.425       8.189       7.971       7.631       7.264       7.054       6.890    
        6.686       6.493       6.354       6.222       6.157       6.141       6.135       6.116       6.086       6.071    
        6.052       6.020       5.939       5.812       5.649       5.439       5.243       4.979       4.442       3.855    
        3.320       2.614       1.995       1.601       1.179      0.7544      0.4431      0.2513      0.1287       0.000    
  20    10.00       9.953       9.865       9.747       9.660       9.607       9.541       9.443       9.327       9.205    
        9.050       8.843       8.510       8.212       8.001       7.729       7.389       7.187       6.994       6.766    
        6.541       6.368       6.224       6.130       6.082       6.058       6.029       6.021       6.006       6.008    
        6.002       5.973       5.888       5.767       5.599       5.415       5.170       4.690       4.109       3.639    
        3.060       2.410       1.946       1.566       1.140      0.6693      0.3869      0.2615      0.1348       0.000    
  21    10.00       9.922       9.828       9.730       9.645       9.589       9.518       9.403       9.288       9.173    
        8.967       8.650       8.310       8.082       7.845       7.558       7.304       7.111       6.879       6.637    
        6.420       6.251       6.124       6.025       5.959       5.910       5.894       5.903       5.906       5.919    
        5.932       5.897       5.810       5.693       5.522       5.319       4.937       4.429       3.967       3.397    
        2.848       2.335       1.944       1.559      0.9599      0.5416      0.3915      0.2954      0.1416       0.000    
  22    10.00       9.902       9.790       9.702       9.635       9.568       9.467       9.361       9.259       9.100    
        8.836       8.476       8.204       7.998       7.731       7.435       7.190       6.986       6.772       6.543    
        6.327       6.148       5.979       5.827       5.741       5.722       5.740       5.756       5.793       5.816    
        5.834       5.794       5.721       5.598       5.423       5.220       4.827       4.333       3.730       3.178    
        2.780       2.371       1.900       1.256      0.7480      0.5397      0.4102      0.2731      0.1010       0.000    
  23    10.00       9.873       9.764       9.695       9.624       9.525       9.414       9.335       9.207       9.007    
        8.696       8.387       8.191       7.934       7.586       7.291       7.098       6.931       6.731       6.483    
        6.256       6.046       5.804       5.520       5.313       5.357       5.493       5.583       5.662       5.716    
        5.734       5.706       5.635       5.521       5.354       5.123       4.725       4.114       3.509       3.120    
        2.753       2.237       1.563       1.011      0.7358      0.5501      0.3935      0.2321      9.2355E-02   0.000    
  24    10.00       9.854       9.775       9.692       9.591       9.487       9.403       9.314       9.190       8.925    
        8.633       8.404       8.183       7.840       7.457       7.244       7.081       6.916       6.689       6.456    
        6.254       5.988       5.600       5.062       4.405       4.677       5.081       5.363       5.529       5.613    
        5.649       5.627       5.568       5.441       5.258       4.970       4.466       3.889       3.434       3.028    
        2.578       2.003       1.402      0.9803      0.7369      0.5358      0.3588      0.2514      0.1234       0.000    
  25    10.00       9.871       9.790       9.685       9.580       9.484       9.400       9.319       9.132       8.874    
        8.649       8.418       8.127       7.749       7.465       7.275       7.091       6.893       6.686       6.485    
        6.253       5.998       5.446       4.420       2.590       3.958       4.701       5.143       5.414       5.551    
        5.593       5.577       5.507       5.335       5.085       4.697       4.224       3.771       3.381       2.905    
        2.362       1.813       1.306      0.9713      0.7637      0.5567      0.3781      0.2633      0.1639       0.000    
  26    10.00       9.888       9.809       9.699       9.586       9.499       9.409       9.289       9.104       8.924    
        8.713       8.397       8.041       7.735       7.521       7.336       7.122       6.879       6.678       6.511    
        6.318       6.067       5.591       4.839       4.004       4.363       4.814       5.145       5.396       5.540    
        5.567       5.538       5.429       5.224       4.949       4.579       4.057       3.628       3.264       2.689    
        2.076       1.596       1.294       1.061      0.8235      0.6009      0.4121      0.2860      0.1671       0.000    
  27    10.00       9.911       9.813       9.714       9.617       9.514       9.413       9.291       9.138       8.974    
        8.707       8.350       8.038       7.785       7.606       7.394       7.115       6.863       6.706       6.569    
        6.419       6.188       5.829       5.388       4.942       4.919       5.094       5.307       5.489       5.564    
        5.559       5.513       5.386       5.162       4.841       4.341       3.853       3.501       2.950       2.348    
        1.874       1.566       1.339       1.134      0.9002      0.6558      0.4476      0.3147      0.1985       0.000    
  28    10.00       9.916       9.837       9.747       9.651       9.541       9.430       9.312       9.179       8.986    
        8.673       8.363       8.091       7.843       7.654       7.446       7.219       6.977       6.757       6.616    
        6.497       6.333       6.103       5.786       5.517       5.362       5.401       5.533       5.592       5.601    
        5.564       5.492       5.334       5.052       4.629       4.113       3.696       3.204       2.633       2.207    
        1.870       1.609       1.387       1.174      0.9458      0.7156      0.5077      0.3583      0.2048       0.000    
  29    10.00       9.922       9.844       9.773       9.679       9.580       9.471       9.350       9.204       8.946    
        8.654       8.390       8.132       7.924       7.708       7.488       7.283       7.089       6.881       6.696    
        6.568       6.443       6.292       6.105       5.852       5.729       5.715       5.719       5.714       5.657    
        5.571       5.433       5.244       4.880       4.368       3.919       3.500       2.990       2.535       2.224    
        1.951       1.665       1.412       1.208       1.003      0.7568      0.5365      0.3744      0.2076       0.000    
  30    10.00       9.932       9.867       9.805       9.721       9.623       9.525       9.388       9.191       8.956    
        8.660       8.374       8.163       7.955       7.750       7.552       7.387       7.209       7.007       6.812    
        6.656       6.551       6.423       6.297       6.161       6.045       6.000       5.908       5.834       5.715    
        5.547       5.314       5.052       4.670       4.274       3.856       3.410       2.934       2.590       2.309    
        1.985       1.698       1.478       1.246       1.001      0.7830      0.5718      0.3976      0.2234       0.000    
  31    10.00       9.946       9.893       9.833       9.770       9.691       9.580       9.409       9.185       8.936    
        8.652       8.396       8.203       8.000       7.810       7.627       7.464       7.326       7.123       6.928    
        6.787       6.674       6.575       6.475       6.396       6.288       6.173       6.066       5.922       5.735    
        5.466       5.173       4.907       4.602       4.226       3.784       3.334       2.946       2.704       2.436    
        2.076       1.761       1.511       1.275       1.048      0.8236      0.6058      0.4183      0.2166       0.000    
  32    10.00       9.953       9.915       9.863       9.803       9.728       9.609       9.412       9.208       8.973    
        8.680       8.444       8.262       8.053       7.851       7.702       7.561       7.397       7.235       7.045    
        6.898       6.779       6.686       6.594       6.505       6.420       6.286       6.143       5.952       5.694    
        5.389       5.103       4.833       4.543       4.173       3.777       3.425       3.095       2.819       2.511    
        2.178       1.867       1.603       1.333       1.085      0.8954      0.6679      0.4104      0.1832       0.000    
  33    10.00       9.961       9.930       9.886       9.825       9.745       9.589       9.395       9.230       9.019    
        8.752       8.528       8.314       8.078       7.900       7.776       7.654       7.487       7.309       7.144    
        6.982       6.859       6.742       6.643       6.567       6.482       6.330       6.127       5.922       5.677    
        5.374       5.119       4.839       4.485       4.141       3.791       3.506       3.245       2.931       2.591    
        2.304       2.010       1.721       1.441       1.181      0.9693      0.7144      0.4122      0.1792       0.000    
  34    10.00       9.967       9.944       9.907       9.827       9.708       9.564       9.430       9.259       9.051    
        8.823       8.579       8.338       8.108       7.963       7.862       7.731       7.571       7.370       7.209    
        7.061       6.907       6.781       6.686       6.608       6.493       6.313       6.119       5.903       5.616    
        5.350       5.146       4.868       4.526       4.188       3.867       3.598       3.339       3.014       2.708    
        2.452       2.169       1.853       1.574       1.311       1.068      0.7639      0.4637      0.2432       0.000    
  35    10.00       9.973       9.944       9.890       9.792       9.676       9.573       9.456       9.318       9.093    
        8.843       8.598       8.354       8.166       8.039       7.932       7.792       7.622       7.425       7.235    
        7.076       6.931       6.803       6.712       6.626       6.509       6.314       6.085       5.830       5.531    
        5.331       5.116       4.837       4.587       4.305       3.969       3.673       3.456       3.151       2.825    
        2.578       2.289       1.972       1.698       1.424       1.158      0.8755      0.5802      0.2870       0.000    
  36    10.00       9.966       9.920       9.862       9.770       9.662       9.576       9.475       9.326       9.108    
        8.835       8.575       8.402       8.260       8.135       7.998       7.832       7.658       7.447       7.193    
        7.020       6.909       6.799       6.722       6.636       6.488       6.267       6.016       5.704       5.436    
        5.267       5.092       4.854       4.614       4.380       4.080       3.786       3.557       3.285       2.929    
        2.659       2.336       2.020       1.811       1.545       1.249      0.9657      0.6571      0.3215       0.000    
  37    10.00       9.948       9.899       9.840       9.751       9.656       9.558       9.462       9.324       9.070    
        8.785       8.586       8.486       8.350       8.193       8.056       7.849       7.633       7.361       7.101    
        6.989       6.895       6.789       6.704       6.603       6.420       6.195       5.864       5.580       5.408    
        5.262       5.077       4.843       4.655       4.417       4.134       3.904       3.684       3.379       2.989    
        2.634       2.331       2.112       1.895       1.628       1.347       1.064      0.7247      0.3979       0.000    
  38    10.00       9.941       9.878       9.816       9.737       9.647       9.543       9.438       9.280       9.041    
        8.828       8.672       8.543       8.419       8.249       8.023       7.788       7.535       7.231       7.059    
        6.969       6.845       6.735       6.664       6.546       6.343       6.011       5.702       5.555       5.425    
        5.272       5.077       4.866       4.681       4.448       4.191       4.003       3.779       3.390       2.961    
        2.653       2.400       2.182       1.958       1.722       1.437       1.155      0.8381      0.4141       0.000    
  39    10.00       9.924       9.862       9.806       9.730       9.628       9.517       9.409       9.259       9.064    
        8.897       8.778       8.633       8.461       8.211       7.926       7.662       7.364       7.149       7.040    
        6.902       6.758       6.674       6.605       6.490       6.217       5.887       5.703       5.570       5.436    
        5.264       5.080       4.878       4.692       4.516       4.306       4.060       3.788       3.405       3.006    
        2.680       2.420       2.248       2.060       1.795       1.512       1.226      0.8723      0.4087       0.000    
  40    10.00       9.915       9.856       9.799       9.720       9.614       9.507       9.399       9.266       9.104    
        8.966       8.860       8.680       8.408       8.092       7.807       7.527       7.273       7.118       6.979    
        6.819       6.694       6.624       6.537       6.382       6.138       5.918       5.736       5.588       5.448    
        5.280       5.083       4.893       4.739       4.584       4.372       4.087       3.804       3.415       2.986    
        2.682       2.475       2.287       2.126       1.847       1.537       1.275      0.8748      0.4073       0.000    
  41    10.00       9.923       9.854       9.785       9.700       9.617       9.526       9.426       9.295       9.146    
        9.015       8.885       8.649       8.324       7.999       7.732       7.458       7.217       7.064       6.913    
        6.752       6.644       6.565       6.461       6.301       6.120       5.973       5.797       5.612       5.448    
        5.288       5.110       4.929       4.795       4.631       4.419       4.134       3.743       3.297       2.967    
        2.746       2.546       2.351       2.127       1.837       1.541       1.316      0.9320      0.4226       0.000    
  42    10.00       9.923       9.844       9.783       9.721       9.644       9.547       9.433       9.321       9.207    
        9.037       8.812       8.537       8.227       7.924       7.682       7.413       7.179       7.015       6.844    
        6.694       6.598       6.510       6.416       6.273       6.148       6.023       5.824       5.617       5.470    
        5.339       5.146       4.952       4.821       4.670       4.444       4.094       3.633       3.224       2.979    
        2.812       2.634       2.385       2.088       1.809       1.577       1.345      0.9830      0.4850       0.000    
  43    10.00       9.916       9.849       9.797       9.747       9.673       9.578       9.470       9.344       9.165    
        8.944       8.712       8.454       8.132       7.861       7.636       7.395       7.159       6.951       6.791    
        6.657       6.561       6.487       6.410       6.289       6.160       6.033       5.827       5.647       5.539    
        5.380       5.171       4.984       4.850       4.673       4.381       3.977       3.540       3.242       3.054    
        2.877       2.671       2.366       2.061       1.814       1.591       1.391      0.9969      0.4556       0.000    
  44    10.00       9.915       9.858       9.811       9.751       9.695       9.616       9.470       9.283       9.075    
        8.890       8.655       8.344       8.074       7.858       7.600       7.336       7.086       6.880       6.740    
        6.642       6.560       6.486       6.406       6.302       6.170       6.000       5.829       5.708       5.580    
        5.436       5.255       5.040       4.837       4.621       4.294       3.870       3.510       3.280       3.098    
        2.919       2.676       2.381       2.117       1.853       1.614       1.368      0.9000      0.4139       0.000    
  45    10.00       9.925       9.871       9.809       9.751       9.702       9.573       9.399       9.209       9.031    
        8.878       8.563       8.240       8.044       7.811       7.525       7.238       7.007       6.840       6.730    
        6.656       6.578       6.497       6.403       6.288       6.158       6.015       5.884       5.777       5.644    
        5.478       5.290       5.069       4.812       4.554       4.202       3.804       3.521       3.346       3.159    
        2.920       2.642       2.389       2.148       1.915       1.676       1.278      0.7998      0.4025       0.000    
  46    10.00       9.939       9.882       9.810       9.743       9.646       9.504       9.373       9.214       9.023    
        8.769       8.469       8.210       7.961       7.713       7.435       7.169       6.998       6.862       6.756    
        6.681       6.606       6.503       6.386       6.275       6.166       6.052       5.932       5.825       5.707    
        5.558       5.359       5.109       4.803       4.435       4.070       3.776       3.576       3.393       3.198    
        2.916       2.619       2.367       2.177       1.953       1.642       1.190      0.7639      0.3766       0.000    
  47    10.00       9.950       9.896       9.824       9.709       9.582       9.461       9.358       9.211       8.959    
        8.654       8.380       8.155       7.946       7.683       7.381       7.146       6.985       6.875       6.787    
        6.706       6.617       6.509       6.386       6.278       6.192       6.098       5.980       5.856       5.741    
        5.611       5.444       5.112       4.684       4.325       4.062       3.816       3.644       3.482       3.211    
        2.868       2.554       2.326       2.194       1.947       1.567       1.125      0.7369      0.3723       0.000    
  48    10.00       9.955       9.899       9.793       9.675       9.564       9.443       9.338       9.190       8.905    
        8.573       8.343       8.159       7.904       7.596       7.324       7.148       6.985       6.876       6.807    
        6.725       6.619       6.502       6.390       6.300       6.232       6.149       6.018       5.874       5.750    
        5.614       5.413       5.067       4.712       4.391       4.102       3.882       3.705       3.498       3.155    
        2.786       2.544       2.363       2.130       1.805       1.468       1.089      0.7422      0.3929       0.000    
  49    10.00       9.953       9.868       9.765       9.676       9.558       9.439       9.329       9.142       8.840    
        8.543       8.324       8.093       7.835       7.603       7.350       7.104       6.953       6.886       6.822    
        6.744       6.622       6.486       6.389       6.321       6.270       6.174       6.023       5.872       5.760    
        5.612       5.348       5.043       4.791       4.523       4.203       3.919       3.701       3.457       3.089    
        2.792       2.580       2.329       1.993       1.706       1.402       1.071      0.7544      0.3842       0.000    
  50    10.00       9.941       9.847       9.753       9.681       9.571       9.440       9.299       9.097       8.859    
        8.558       8.263       8.023       7.817       7.631       7.347       7.067       6.953       6.895       6.832    
        6.757       6.620       6.475       6.386       6.333       6.286       6.179       6.016       5.872       5.757    
        5.596       5.319       5.084       4.868       4.578       4.259       3.972       3.682       3.332       3.006    
        2.849       2.625       2.260       1.922       1.681       1.391       1.104      0.7368      0.3026       0.000    

 HEAD WILL BE SAVED ON UNIT   51 AT END OF TIME STEP  42, STRESS PERIOD    2

 DRAWDOWN WILL BE SAVED ON UNIT   52 AT END OF TIME STEP  42, STRESS PERIOD    2
1
  VOLUMETRIC BUDGET FOR ENTIRE MODEL AT END OF TIME STEP 42 IN STRESS PERIOD   2
  ------------------------------------------------------------------------------

     CUMULATIVE VOLUMES      L**3       RATES FOR THIS TIME STEP      L**3/T
     ------------------                 ------------------------

           IN:                                      IN:
           ---                                      ---
             STORAGE =       20712.9277               STORAGE =         473.7653
       CONSTANT HEAD =       23497.6270         CONSTANT HEAD =         565.4924
               WELLS =           0.0000                 WELLS =           0.0000

            TOTAL IN =       44210.5547              TOTAL IN =        1039.2577

          OUT:                                     OUT:
          ----                                     ----
             STORAGE =       9.3745E-03               STORAGE =           0.0000
       CONSTANT HEAD =       23210.5410         CONSTANT HEAD =         539.2573
               WELLS =       21000.0000                 WELLS =         500.0000

           TOTAL OUT =       44210.5508             TOTAL OUT =        1039.2573

            IN - OUT =       3.9063E-03              IN - OUT =       3.6621E-04

 PERCENT DISCREPANCY =           0.00     PERCENT DISCREPANCY =           0.00






          TIME SUMMARY AT END OF TIME STEP  42 IN STRESS PERIOD    2
                    SECONDS     MINUTES      HOURS       DAYS        YEARS
                    -----------------------------------------------------------
   TIME STEP LENGTH  86400.      1440.0      24.000      1.0000     2.73785E-03
 STRESS PERIOD TIME 3.62880E+06  60480.      1008.0      42.000     0.11499    
         TOTAL TIME 3.71520E+06  61920.      1032.0      43.000     0.11773    
1
 
 SOLVING FOR HEAD 

 OUTPUT CONTROL FOR STRESS PERIOD    2   TIME STEP  43
    SAVE HEAD FOR ALL LAYERS
    SAVE DRAWDOWN FOR ALL LAYERS
    SAVE BUDGET
    PRINT HEAD FOR ALL LAYERS
    PRINT BUDGET
 UBDSV1 SAVING "         STORAGE" ON UNIT  53 AT TIME STEP 43, STRESS PERIOD   2
 UBDSV2 SAVING "   CONSTANT HEAD" ON UNIT  53 AT TIME STEP 43, STRESS PERIOD   2
 UBDSV1 SAVING "FLOW RIGHT FACE " ON UNIT  53 AT TIME STEP 43, STRESS PERIOD   2
 UBDSV1 SAVING "FLOW FRONT FACE " ON UNIT  53 AT TIME STEP 43, STRESS PERIOD   2
1
              HEAD IN LAYER   1 AT END OF TIME STEP  43 IN STRESS PERIOD    2
  ---------------------------------------------------------------------------

            1           2           3           4           5           6           7           8           9          10
           11          12          13          14          15          16          17          18          19          20
           21          22          23          24          25          26          27          28          29          30
           31          32          33          34          35          36          37          38          39          40
           41          42          43          44          45          46          47          48          49          50
 ........................................................................................................................
   1    10.00       9.958       9.900       9.842       9.794       9.736       9.678       9.618       9.537       9.470    
        9.431       9.391       9.348       9.304       9.235       9.158       9.074       9.009       8.979       8.947    
        8.906       8.871       8.836       8.790       8.727       8.617       8.484       8.355       8.206       8.058    
        7.847       7.513       7.118       6.703       6.237       5.807       5.443       5.104       4.641       4.138    
        3.710       3.287       2.703       2.149       1.761       1.372       1.046      0.8361      0.5545       0.000    
   2    10.00       9.957       9.905       9.848       9.796       9.742       9.678       9.599       9.521       9.470    
        9.435       9.400       9.366       9.312       9.232       9.152       9.076       9.012       8.980       8.943    
        8.902       8.875       8.847       8.798       8.726       8.621       8.487       8.353       8.213       8.065    
        7.837       7.492       7.078       6.608       6.139       5.724       5.398       5.065       4.596       4.124    
        3.692       3.183       2.656       2.217       1.832       1.470       1.098      0.7940      0.4239       0.000    
   3    10.00       9.953       9.904       9.851       9.799       9.736       9.657       9.582       9.532       9.485    
        9.445       9.414       9.381       9.330       9.250       9.151       9.070       9.017       8.977       8.940    
        8.906       8.877       8.849       8.788       8.711       8.605       8.478       8.377       8.229       8.054    
        7.761       7.360       6.919       6.464       6.031       5.645       5.353       5.011       4.504       4.045    
        3.685       3.221       2.735       2.314       1.913       1.548       1.108      0.6813      0.2996       0.000    
   4    10.00       9.957       9.906       9.849       9.785       9.713       9.637       9.581       9.538       9.495    
        9.459       9.433       9.396       9.341       9.268       9.160       9.070       9.021       8.978       8.943    
        8.904       8.870       8.834       8.770       8.691       8.589       8.466       8.352       8.237       8.018    
        7.640       7.151       6.680       6.332       6.008       5.634       5.259       4.825       4.396       4.061    
        3.741       3.330       2.843       2.427       2.007       1.564       1.057      0.6050      0.2818       0.000    
   5    10.00       9.954       9.900       9.834       9.768       9.701       9.635       9.588       9.544       9.506    
        9.475       9.447       9.405       9.340       9.255       9.156       9.080       9.026       8.982       8.933    
        8.888       8.853       8.808       8.742       8.668       8.551       8.429       8.331       8.216       7.937    
        7.442       6.906       6.518       6.253       5.960       5.581       5.154       4.726       4.421       4.137    
        3.847       3.423       2.915       2.551       2.124       1.544      0.9616      0.5584      0.2809       0.000    
   6    10.00       9.943       9.879       9.828       9.765       9.696       9.640       9.597       9.552       9.517    
        9.489       9.455       9.399       9.325       9.251       9.170       9.087       9.021       8.964       8.909    
        8.869       8.832       8.790       8.721       8.612       8.499       8.408       8.302       8.110       7.710    
        7.161       6.677       6.380       6.181       5.944       5.528       5.064       4.724       4.499       4.250    
        3.968       3.584       3.080       2.627       2.098       1.477      0.8622      0.4911      0.2744       0.000    
   7    10.00       9.926       9.867       9.817       9.757       9.707       9.653       9.609       9.571       9.534    
        9.496       9.448       9.381       9.309       9.242       9.175       9.083       8.994       8.933       8.888    
        8.849       8.808       8.765       8.673       8.561       8.471       8.371       8.202       7.880       7.373    
        6.853       6.475       6.291       6.136       5.836       5.425       5.120       4.822       4.578       4.405    
        4.119       3.722       3.181       2.595       1.943       1.231      0.7227      0.4986      0.2525       0.000    
   8    10.00       9.922       9.866       9.813       9.759       9.715       9.669       9.626       9.589       9.554    
        9.500       9.429       9.359       9.296       9.233       9.151       9.042       8.958       8.912       8.868    
        8.822       8.787       8.717       8.618       8.519       8.413       8.226       7.958       7.519       7.081    
        6.693       6.395       6.254       6.065       5.727       5.411       5.157       4.939       4.742       4.537    
        4.241       3.751       3.127       2.458       1.716       1.111      0.7648      0.4891      0.2253       0.000    
   9    10.00       9.925       9.863       9.810       9.772       9.735       9.691       9.648       9.606       9.565    
        9.497       9.411       9.339       9.274       9.199       9.107       9.009       8.934       8.886       8.840    
        8.798       8.743       8.645       8.554       8.452       8.305       8.034       7.633       7.200       6.886    
        6.580       6.360       6.203       5.952       5.641       5.396       5.215       5.047       4.880       4.656    
        4.289       3.777       3.113       2.367       1.683       1.150      0.7802      0.4851      0.2405       0.000    
  10    10.00       9.924       9.861       9.818       9.784       9.748       9.709       9.672       9.623       9.559    
        9.476       9.389       9.319       9.248       9.169       9.063       8.964       8.904       8.861       8.815    
        8.772       8.682       8.576       8.476       8.337       8.117       7.715       7.280       6.938       6.701    
        6.518       6.337       6.128       5.871       5.606       5.419       5.283       5.144       4.957       4.698    
        4.303       3.742       3.031       2.364       1.822       1.317      0.8354      0.5151      0.2714       0.000    
  11    10.00       9.914       9.866       9.829       9.795       9.763       9.729       9.680       9.611       9.539    
        9.456       9.371       9.303       9.210       9.103       9.009       8.938       8.882       8.839       8.788    
        8.711       8.595       8.444       8.297       8.055       7.729       7.373       7.082       6.805       6.633    
        6.479       6.245       6.008       5.817       5.639       5.501       5.364       5.186       4.964       4.661    
        4.290       3.793       3.073       2.463       1.983       1.498      0.9623      0.5101      0.2048       0.000    
  12    10.00       9.922       9.874       9.835       9.807       9.774       9.736       9.670       9.588       9.515    
        9.436       9.352       9.261       9.148       9.060       8.979       8.905       8.858       8.803       8.726    
        8.577       8.380       8.169       7.950       7.650       7.400       7.210       6.914       6.684       6.546    
        6.382       6.166       5.976       5.815       5.697       5.572       5.409       5.208       4.942       4.623    
        4.257       3.771       3.110       2.565       2.129       1.604       1.012      0.4824      0.1604       0.000    
  13    10.00       9.939       9.895       9.853       9.817       9.779       9.723       9.642       9.558       9.485    
        9.403       9.319       9.223       9.107       9.006       8.925       8.872       8.812       8.735       8.556    
        8.286       8.046       7.817       7.543       7.308       7.194       6.962       6.693       6.573       6.457    
        6.281       6.093       5.956       5.843       5.746       5.631       5.444       5.192       4.931       4.601    
        4.236       3.741       3.058       2.548       2.143       1.570      0.9425      0.4362      0.1260       0.000    
  14    10.00       9.955       9.915       9.872       9.828       9.771       9.690       9.605       9.530       9.447    
        9.365       9.287       9.174       9.045       8.953       8.888       8.803       8.712       8.533       8.218    
        7.930       7.714       7.412       7.187       7.079       6.951       6.713       6.555       6.438       6.326    
        6.176       6.057       5.973       5.879       5.778       5.659       5.449       5.173       4.893       4.556    
        4.164       3.566       2.923       2.510       2.015       1.464      0.9298      0.3986      0.1026       0.000    
  15    10.00       9.965       9.925       9.881       9.831       9.745       9.646       9.571       9.496       9.417    
        9.355       9.264       9.116       8.975       8.891       8.779       8.665       8.548       8.248       7.878    
        7.638       7.332       7.055       6.969       6.902       6.735       6.543       6.389       6.304       6.221    
        6.128       6.058       5.992       5.912       5.805       5.659       5.417       5.103       4.808       4.496    
        4.072       3.488       2.931       2.376       1.777       1.285      0.7997      0.3513      0.1054       0.000    
  16    10.00       9.974       9.935       9.883       9.805       9.700       9.615       9.554       9.487       9.405    
        9.322       9.193       9.023       8.888       8.766       8.634       8.555       8.322       7.884       7.541    
        7.297       6.994       6.889       6.835       6.712       6.503       6.347       6.274       6.244       6.187    
        6.117       6.060       6.007       5.923       5.794       5.613       5.323       5.036       4.802       4.467    
        3.983       3.354       2.714       2.098       1.589       1.102      0.6815      0.3336      0.1125       0.000    
  17    10.00       9.974       9.933       9.866       9.769       9.664       9.593       9.537       9.463       9.372    
        9.234       9.071       8.917       8.769       8.618       8.491       8.299       7.907       7.496       7.255    
        7.014       6.826       6.743       6.623       6.431       6.274       6.232       6.221       6.201       6.151    
        6.096       6.051       6.003       5.927       5.745       5.495       5.245       5.041       4.817       4.395    
        3.748       3.107       2.497       1.893       1.359      0.8917      0.5713      0.2984      0.1226       0.000    
  18    10.00       9.968       9.920       9.840       9.720       9.636       9.580       9.504       9.419       9.293    
        9.127       8.982       8.826       8.628       8.429       8.218       7.937       7.536       7.226       7.014    
        6.816       6.657       6.531       6.360       6.227       6.186       6.174       6.169       6.144       6.106    
        6.072       6.036       5.981       5.853       5.663       5.449       5.236       5.053       4.740       4.176    
        3.515       2.833       2.181       1.686       1.261      0.8360      0.4907      0.2468      0.1182       0.000    
  19    10.00       9.961       9.908       9.793       9.673       9.623       9.561       9.469       9.364       9.229    
        9.077       8.940       8.716       8.415       8.177       7.959       7.616       7.248       7.037       6.873    
        6.668       6.475       6.336       6.204       6.139       6.123       6.117       6.098       6.069       6.054    
        6.035       6.004       5.924       5.799       5.636       5.429       5.234       4.971       4.437       3.851    
        3.318       2.612       1.994       1.601       1.179      0.7542      0.4430      0.2513      0.1287       0.000    
  20    10.00       9.953       9.864       9.746       9.659       9.605       9.538       9.440       9.323       9.200    
        9.044       8.835       8.501       8.200       7.988       7.715       7.373       7.171       6.977       6.749    
        6.523       6.350       6.205       6.111       6.064       6.039       6.011       6.003       5.988       5.990    
        5.985       5.957       5.873       5.753       5.586       5.404       5.161       4.683       4.104       3.636    
        3.057       2.408       1.946       1.565       1.140      0.6692      0.3868      0.2615      0.1347       0.000    
  21    10.00       9.922       9.827       9.728       9.643       9.587       9.515       9.400       9.284       9.168    
        8.960       8.641       8.298       8.069       7.831       7.543       7.287       7.094       6.861       6.619    
        6.402       6.232       6.105       6.006       5.940       5.891       5.876       5.884       5.887       5.901    
        5.914       5.880       5.794       5.679       5.509       5.308       4.928       4.423       3.963       3.394    
        2.846       2.334       1.943       1.559      0.9597      0.5415      0.3914      0.2953      0.1416       0.000    
  22    10.00       9.901       9.789       9.700       9.633       9.565       9.464       9.357       9.255       9.094    
        8.828       8.466       8.191       7.984       7.716       7.419       7.174       6.968       6.754       6.524    
        6.308       6.129       5.960       5.808       5.722       5.703       5.721       5.737       5.774       5.797    
        5.815       5.777       5.705       5.583       5.410       5.209       4.818       4.327       3.726       3.176    
        2.778       2.370       1.899       1.256      0.7479      0.5396      0.4102      0.2730      0.1010       0.000    
  23    10.00       9.873       9.763       9.693       9.622       9.522       9.411       9.331       9.202       9.000    
        8.687       8.376       8.179       7.921       7.571       7.275       7.080       6.913       6.712       6.465    
        6.237       6.027       5.785       5.501       5.293       5.338       5.473       5.563       5.643       5.696    
        5.715       5.688       5.618       5.505       5.341       5.112       4.716       4.109       3.506       3.118    
        2.751       2.236       1.563       1.011      0.7357      0.5501      0.3934      0.2321      9.2342E-02   0.000    
  24    10.00       9.853       9.774       9.690       9.589       9.484       9.399       9.310       9.185       8.918    
        8.623       8.394       8.171       7.826       7.441       7.227       7.064       6.899       6.671       6.438    
        6.235       5.969       5.581       5.042       4.384       4.656       5.061       5.343       5.509       5.593    
        5.630       5.609       5.551       5.426       5.244       4.959       4.458       3.884       3.431       3.026    
        2.577       2.003       1.401      0.9801      0.7368      0.5357      0.3588      0.2514      0.1234       0.000    
  25    10.00       9.870       9.789       9.683       9.578       9.481       9.396       9.315       9.127       8.867    
        8.639       8.407       8.114       7.735       7.450       7.259       7.074       6.876       6.667       6.467    
        6.234       5.979       5.426       4.399       2.569       3.937       4.680       5.122       5.394       5.531    
        5.574       5.559       5.490       5.320       5.073       4.687       4.217       3.766       3.377       2.903    
        2.361       1.813       1.306      0.9711      0.7636      0.5566      0.3780      0.2632      0.1638       0.000    
  26    10.00       9.887       9.808       9.697       9.584       9.496       9.406       9.284       9.098       8.917    
        8.705       8.386       8.028       7.720       7.505       7.320       7.105       6.862       6.660       6.492    
        6.299       6.048       5.571       4.819       3.983       4.342       4.793       5.124       5.376       5.520    
        5.548       5.520       5.412       5.209       4.937       4.569       4.051       3.624       3.261       2.687    
        2.075       1.595       1.293       1.060      0.8234      0.6008      0.4120      0.2859      0.1671       0.000    
  27    10.00       9.910       9.812       9.713       9.615       9.511       9.409       9.287       9.133       8.967    
        8.699       8.340       8.025       7.771       7.591       7.378       7.099       6.845       6.688       6.551    
        6.400       6.169       5.810       5.368       4.922       4.898       5.073       5.286       5.468       5.545    
        5.540       5.495       5.370       5.148       4.830       4.334       3.848       3.497       2.948       2.347    
        1.873       1.566       1.338       1.134      0.9001      0.6557      0.4475      0.3147      0.1985       0.000    
  28    10.00       9.916       9.836       9.745       9.649       9.539       9.426       9.308       9.174       8.980    
        8.665       8.352       8.079       7.830       7.639       7.430       7.203       6.960       6.740       6.598    
        6.479       6.315       6.084       5.766       5.497       5.341       5.380       5.513       5.571       5.582    
        5.546       5.475       5.319       5.040       4.620       4.107       3.692       3.201       2.631       2.206    
        1.870       1.609       1.386       1.173      0.9457      0.7155      0.5077      0.3582      0.2047       0.000    
  29    10.00       9.922       9.843       9.772       9.677       9.578       9.468       9.346       9.199       8.939    
        8.645       8.380       8.121       7.911       7.694       7.473       7.267       7.073       6.864       6.679    
        6.551       6.425       6.274       6.086       5.832       5.708       5.695       5.699       5.695       5.638    
        5.554       5.418       5.231       4.870       4.362       3.914       3.497       2.988       2.534       2.223    
        1.950       1.665       1.412       1.208       1.003      0.7567      0.5364      0.3743      0.2076       0.000    
  30    10.00       9.932       9.867       9.804       9.719       9.621       9.523       9.384       9.187       8.950    
        8.652       8.364       8.152       7.943       7.737       7.538       7.372       7.194       6.990       6.795    
        6.638       6.533       6.405       6.279       6.142       6.026       5.982       5.889       5.816       5.698    
        5.532       5.301       5.042       4.663       4.269       3.852       3.407       2.932       2.589       2.308    
        1.984       1.698       1.478       1.246       1.001      0.7829      0.5717      0.3975      0.2234       0.000    
  31    10.00       9.946       9.892       9.832       9.769       9.689       9.578       9.406       9.180       8.930    
        8.644       8.386       8.193       7.988       7.797       7.614       7.450       7.311       7.108       6.912    
        6.770       6.657       6.557       6.457       6.379       6.271       6.155       6.049       5.905       5.720    
        5.454       5.163       4.900       4.596       4.221       3.781       3.332       2.944       2.703       2.435    
        2.075       1.761       1.510       1.275       1.048      0.8235      0.6058      0.4183      0.2166       0.000    
  32    10.00       9.953       9.914       9.863       9.802       9.727       9.607       9.409       9.203       8.967    
        8.672       8.435       8.252       8.042       7.839       7.689       7.548       7.384       7.220       7.030    
        6.882       6.763       6.669       6.578       6.490       6.404       6.270       6.127       5.938       5.682    
        5.380       5.095       4.827       4.538       4.170       3.775       3.424       3.094       2.818       2.510    
        2.177       1.867       1.603       1.332       1.085      0.8954      0.6678      0.4103      0.1832       0.000    
  33    10.00       9.960       9.930       9.886       9.824       9.743       9.587       9.392       9.226       9.014    
        8.745       8.520       8.305       8.068       7.889       7.764       7.642       7.474       7.295       7.130    
        6.967       6.844       6.727       6.629       6.552       6.467       6.316       6.114       5.911       5.667    
        5.366       5.113       4.834       4.481       4.138       3.789       3.504       3.244       2.930       2.591    
        2.304       2.010       1.721       1.441       1.181      0.9692      0.7143      0.4122      0.1792       0.000    
  34    10.00       9.967       9.944       9.906       9.826       9.707       9.562       9.427       9.255       9.046    
        8.817       8.572       8.330       8.098       7.953       7.851       7.720       7.559       7.357       7.196    
        7.048       6.893       6.768       6.672       6.594       6.480       6.300       6.108       5.893       5.609    
        5.344       5.140       4.864       4.523       4.186       3.865       3.596       3.338       3.014       2.708    
        2.452       2.169       1.853       1.574       1.311       1.068      0.7638      0.4637      0.2432       0.000    
  35    10.00       9.973       9.944       9.890       9.791       9.675       9.571       9.454       9.315       9.089    
        8.838       8.592       8.347       8.157       8.029       7.922       7.781       7.610       7.414       7.223    
        7.065       6.919       6.792       6.700       6.614       6.498       6.303       6.075       5.822       5.526    
        5.326       5.112       4.834       4.585       4.304       3.968       3.672       3.455       3.151       2.825    
        2.578       2.289       1.972       1.698       1.424       1.158      0.8754      0.5802      0.2870       0.000    
  36    10.00       9.966       9.920       9.861       9.769       9.661       9.574       9.473       9.323       9.104    
        8.830       8.569       8.395       8.253       8.126       7.989       7.822       7.648       7.437       7.183    
        7.011       6.900       6.790       6.712       6.626       6.479       6.259       6.009       5.698       5.433    
        5.264       5.090       4.852       4.613       4.378       4.079       3.785       3.556       3.284       2.929    
        2.658       2.336       2.020       1.811       1.545       1.249      0.9656      0.6571      0.3215       0.000    
  37    10.00       9.948       9.899       9.840       9.750       9.655       9.557       9.460       9.322       9.067    
        8.780       8.581       8.480       8.343       8.185       8.048       7.841       7.624       7.353       7.093    
        6.981       6.887       6.781       6.696       6.594       6.413       6.189       5.859       5.577       5.405    
        5.260       5.075       4.841       4.654       4.416       4.133       3.904       3.684       3.379       2.988    
        2.634       2.331       2.112       1.895       1.628       1.347       1.064      0.7247      0.3979       0.000    
  38    10.00       9.941       9.877       9.815       9.736       9.646       9.541       9.437       9.277       9.038    
        8.824       8.667       8.538       8.413       8.242       8.016       7.781       7.528       7.224       7.052    
        6.962       6.839       6.728       6.657       6.540       6.337       6.007       5.699       5.552       5.422    
        5.270       5.075       4.865       4.680       4.447       4.190       4.003       3.779       3.390       2.961    
        2.653       2.400       2.182       1.958       1.722       1.437       1.155      0.8381      0.4141       0.000    
  39    10.00       9.924       9.862       9.806       9.730       9.627       9.516       9.407       9.257       9.061    
        8.894       8.774       8.628       8.455       8.205       7.920       7.656       7.358       7.144       7.034    
        6.897       6.753       6.669       6.600       6.485       6.214       5.884       5.701       5.568       5.434    
        5.263       5.079       4.877       4.691       4.516       4.306       4.059       3.788       3.405       3.005    
        2.680       2.420       2.248       2.060       1.795       1.512       1.226      0.8723      0.4087       0.000    
  40    10.00       9.915       9.856       9.799       9.720       9.614       9.505       9.398       9.264       9.101    
        8.963       8.857       8.676       8.404       8.088       7.802       7.522       7.269       7.114       6.975    
        6.815       6.690       6.620       6.533       6.379       6.136       5.916       5.734       5.586       5.447    
        5.279       5.082       4.892       4.738       4.584       4.371       4.087       3.804       3.414       2.986    
        2.682       2.475       2.286       2.126       1.847       1.537       1.275      0.8748      0.4073       0.000    
  41    10.00       9.923       9.854       9.785       9.700       9.616       9.525       9.425       9.293       9.145    
        9.013       8.882       8.646       8.321       7.996       7.729       7.455       7.213       7.061       6.909    
        6.749       6.641       6.561       6.458       6.299       6.118       5.971       5.795       5.610       5.447    
        5.287       5.109       4.928       4.794       4.630       4.418       4.134       3.743       3.296       2.966    
        2.746       2.546       2.351       2.127       1.837       1.540       1.316      0.9320      0.4226       0.000    
  42    10.00       9.922       9.844       9.783       9.721       9.643       9.546       9.432       9.320       9.205    
        9.035       8.809       8.534       8.224       7.922       7.679       7.411       7.176       7.012       6.841    
        6.692       6.596       6.508       6.414       6.271       6.146       6.022       5.823       5.615       5.469    
        5.338       5.145       4.951       4.821       4.669       4.444       4.094       3.633       3.224       2.978    
        2.812       2.634       2.385       2.088       1.809       1.577       1.344      0.9830      0.4850       0.000    
  43    10.00       9.916       9.849       9.797       9.747       9.673       9.577       9.469       9.343       9.164    
        8.943       8.710       8.453       8.130       7.859       7.634       7.393       7.157       6.949       6.789    
        6.655       6.559       6.485       6.408       6.287       6.158       6.032       5.826       5.645       5.538    
        5.379       5.170       4.983       4.849       4.673       4.380       3.976       3.539       3.242       3.054    
        2.876       2.671       2.366       2.061       1.814       1.591       1.391      0.9969      0.4555       0.000    
  44    10.00       9.915       9.857       9.810       9.750       9.694       9.615       9.469       9.282       9.074    
        8.889       8.653       8.342       8.072       7.856       7.598       7.334       7.084       6.878       6.738    
        6.640       6.558       6.484       6.405       6.300       6.169       5.998       5.828       5.707       5.579    
        5.435       5.254       5.040       4.836       4.620       4.293       3.869       3.510       3.280       3.098    
        2.919       2.676       2.381       2.117       1.853       1.614       1.368      0.9000      0.4139       0.000    
  45    10.00       9.924       9.871       9.809       9.751       9.702       9.572       9.399       9.208       9.030    
        8.877       8.562       8.239       8.043       7.810       7.523       7.236       7.005       6.839       6.728    
        6.654       6.577       6.495       6.402       6.286       6.157       6.013       5.883       5.776       5.643    
        5.477       5.289       5.068       4.811       4.553       4.201       3.804       3.521       3.346       3.158    
        2.920       2.642       2.389       2.148       1.915       1.676       1.278      0.7998      0.4025       0.000    
  46    10.00       9.939       9.881       9.810       9.742       9.645       9.504       9.372       9.213       9.022    
        8.768       8.468       8.209       7.960       7.712       7.434       7.168       6.997       6.861       6.755    
        6.680       6.605       6.501       6.385       6.273       6.164       6.051       5.931       5.824       5.706    
        5.557       5.358       5.108       4.803       4.435       4.069       3.775       3.575       3.393       3.197    
        2.916       2.619       2.367       2.177       1.953       1.642       1.190      0.7639      0.3766       0.000    
  47    10.00       9.950       9.895       9.824       9.709       9.581       9.460       9.357       9.210       8.958    
        8.654       8.379       8.154       7.946       7.682       7.380       7.145       6.983       6.874       6.786    
        6.704       6.616       6.508       6.385       6.277       6.191       6.097       5.979       5.855       5.740    
        5.610       5.443       5.111       4.683       4.324       4.062       3.815       3.643       3.481       3.211    
        2.868       2.554       2.326       2.194       1.947       1.567       1.125      0.7369      0.3723       0.000    
  48    10.00       9.955       9.899       9.793       9.674       9.564       9.443       9.338       9.189       8.905    
        8.572       8.342       8.158       7.903       7.595       7.323       7.146       6.984       6.875       6.806    
        6.723       6.618       6.501       6.388       6.299       6.231       6.147       6.017       5.873       5.749    
        5.613       5.412       5.066       4.711       4.391       4.101       3.881       3.705       3.498       3.155    
        2.785       2.544       2.362       2.130       1.805       1.468       1.089      0.7421      0.3929       0.000    
  49    10.00       9.953       9.868       9.765       9.676       9.557       9.439       9.329       9.141       8.840    
        8.543       8.323       8.092       7.834       7.602       7.349       7.103       6.952       6.885       6.821    
        6.742       6.621       6.485       6.388       6.320       6.269       6.173       6.022       5.871       5.759    
        5.611       5.347       5.042       4.791       4.522       4.203       3.919       3.701       3.457       3.089    
        2.792       2.580       2.329       1.993       1.706       1.402       1.071      0.7544      0.3842       0.000    
  50    10.00       9.941       9.847       9.753       9.681       9.570       9.440       9.299       9.096       8.858    
        8.557       8.262       8.022       7.817       7.630       7.346       7.066       6.952       6.893       6.831    
        6.756       6.619       6.474       6.385       6.331       6.285       6.177       6.015       5.871       5.756    
        5.595       5.318       5.083       4.868       4.577       4.259       3.971       3.682       3.332       3.006    
        2.848       2.625       2.260       1.922       1.681       1.391       1.104      0.7368      0.3026       0.000    

 HEAD WILL BE SAVED ON UNIT   51 AT END OF TIME STEP  43, STRESS PERIOD    2

 DRAWDOWN WILL BE SAVED ON UNIT   52 AT END OF TIME STEP  43, STRESS PERIOD    2
1
  VOLUMETRIC BUDGET FOR ENTIRE MODEL AT END OF TIME STEP 43 IN STRESS PERIOD   2
  ------------------------------------------------------------------------------

     CUMULATIVE VOLUMES      L**3       RATES FOR THIS TIME STEP      L**3/T
     ------------------                 ------------------------

           IN:                                      IN:
           ---                                      ---
             STORAGE =       21185.0664               STORAGE =         472.1377
       CONSTANT HEAD =       24064.6758         CONSTANT HEAD =         567.0480
               WELLS =           0.0000                 WELLS =           0.0000

            TOTAL IN =       45249.7422              TOTAL IN =        1039.1857

          OUT:                                     OUT:
          ----                                     ----
             STORAGE =       9.3745E-03               STORAGE =           0.0000
       CONSTANT HEAD =       23749.7266         CONSTANT HEAD =         539.1855
               WELLS =       21500.0000                 WELLS =         500.0000

           TOTAL OUT =       45249.7344             TOTAL OUT =        1039.1855

            IN - OUT =       7.8125E-03              IN - OUT =       1.2207E-04

 PERCENT DISCREPANCY =           0.00     PERCENT DISCREPANCY =           0.00






          TIME SUMMARY AT END OF TIME STEP  43 IN STRESS PERIOD    2
                    SECONDS     MINUTES      HOURS       DAYS        YEARS
                    -----------------------------------------------------------
   TIME STEP LENGTH  86400.      1440.0      24.000      1.0000     2.73785E-03
 STRESS PERIOD TIME 3.71520E+06  61920.      1032.0      43.000     0.11773    
         TOTAL TIME 3.80160E+06  63360.      1056.0      44.000     0.12047    
1
 
 SOLVING FOR HEAD 

 OUTPUT CONTROL FOR STRESS PERIOD    2   TIME STEP  44
    SAVE HEAD FOR ALL LAYERS
    SAVE DRAWDOWN FOR ALL LAYERS
    SAVE BUDGET
    PRINT HEAD FOR ALL LAYERS
    PRINT BUDGET
 UBDSV1 SAVING "         STORAGE" ON UNIT  53 AT TIME STEP 44, STRESS PERIOD   2
 UBDSV2 SAVING "   CONSTANT HEAD" ON UNIT  53 AT TIME STEP 44, STRESS PERIOD   2
 UBDSV1 SAVING "FLOW RIGHT FACE " ON UNIT  53 AT TIME STEP 44, STRESS PERIOD   2
 UBDSV1 SAVING "FLOW FRONT FACE " ON UNIT  53 AT TIME STEP 44, STRESS PERIOD   2
1
              HEAD IN LAYER   1 AT END OF TIME STEP  44 IN STRESS PERIOD    2
  ---------------------------------------------------------------------------

            1           2           3           4           5           6           7           8           9          10
           11          12          13          14          15          16          17          18          19          20
           21          22          23          24          25          26          27          28          29          30
           31          32          33          34          35          36          37          38          39          40
           41          42          43          44          45          46          47          48          49          50
 ........................................................................................................................
   1    10.00       9.958       9.899       9.842       9.794       9.735       9.677       9.616       9.535       9.469    
        9.429       9.390       9.346       9.302       9.232       9.155       9.072       9.006       8.976       8.944    
        8.903       8.868       8.833       8.787       8.724       8.614       8.481       8.352       8.203       8.055    
        7.845       7.510       7.116       6.701       6.235       5.805       5.441       5.102       4.639       4.136    
        3.709       3.285       2.702       2.148       1.760       1.372       1.046      0.8358      0.5543       0.000    
   2    10.00       9.957       9.905       9.847       9.796       9.742       9.677       9.598       9.520       9.469    
        9.433       9.398       9.364       9.310       9.229       9.150       9.073       9.009       8.977       8.940    
        8.899       8.872       8.843       8.795       8.723       8.618       8.484       8.349       8.210       8.062    
        7.834       7.490       7.075       6.606       6.136       5.722       5.396       5.063       4.594       4.123    
        3.691       3.182       2.655       2.216       1.831       1.469       1.097      0.7938      0.4238       0.000    
   3    10.00       9.953       9.903       9.850       9.798       9.736       9.656       9.580       9.531       9.484    
        9.443       9.412       9.379       9.328       9.247       9.148       9.068       9.015       8.975       8.937    
        8.903       8.874       8.846       8.785       8.708       8.602       8.475       8.373       8.226       8.051    
        7.758       7.357       6.917       6.462       6.029       5.643       5.351       5.009       4.502       4.043    
        3.683       3.220       2.734       2.313       1.913       1.547       1.107      0.6811      0.2996       0.000    
   4    10.00       9.957       9.906       9.848       9.784       9.712       9.635       9.580       9.537       9.493    
        9.458       9.431       9.395       9.339       9.266       9.158       9.068       9.018       8.975       8.940    
        8.901       8.867       8.831       8.767       8.688       8.585       8.462       8.348       8.234       8.015    
        7.637       7.148       6.677       6.329       6.005       5.631       5.256       4.822       4.394       4.059    
        3.739       3.328       2.842       2.426       2.006       1.563       1.056      0.6048      0.2817       0.000    
   5    10.00       9.954       9.900       9.834       9.767       9.700       9.634       9.586       9.542       9.504    
        9.473       9.446       9.403       9.338       9.252       9.154       9.077       9.023       8.979       8.930    
        8.885       8.850       8.804       8.739       8.665       8.548       8.425       8.327       8.213       7.934    
        7.438       6.902       6.514       6.249       5.956       5.577       5.151       4.723       4.419       4.135    
        3.845       3.421       2.914       2.550       2.123       1.544      0.9613      0.5583      0.2808       0.000    
   6    10.00       9.943       9.879       9.827       9.765       9.695       9.639       9.596       9.550       9.516    
        9.487       9.453       9.398       9.323       9.249       9.168       9.085       9.018       8.961       8.905    
        8.865       8.828       8.786       8.717       8.608       8.496       8.404       8.298       8.106       7.706    
        7.156       6.672       6.375       6.176       5.939       5.524       5.061       4.720       4.496       4.247    
        3.966       3.582       3.078       2.626       2.097       1.476      0.8620      0.4909      0.2743       0.000    
   7    10.00       9.926       9.866       9.816       9.756       9.706       9.652       9.608       9.569       9.532    
        9.495       9.446       9.379       9.306       9.240       9.173       9.081       8.990       8.930       8.884    
        8.845       8.805       8.761       8.669       8.557       8.467       8.367       8.198       7.875       7.368    
        6.847       6.469       6.286       6.131       5.830       5.421       5.115       4.818       4.574       4.401    
        4.116       3.719       3.180       2.594       1.943       1.230      0.7224      0.4985      0.2524       0.000    
   8    10.00       9.921       9.866       9.812       9.758       9.714       9.668       9.625       9.588       9.552    
        9.498       9.427       9.357       9.294       9.231       9.148       9.039       8.954       8.908       8.864    
        8.818       8.784       8.713       8.614       8.515       8.408       8.221       7.953       7.513       7.074    
        6.687       6.388       6.248       6.059       5.721       5.406       5.152       4.934       4.738       4.533    
        4.238       3.748       3.125       2.457       1.715       1.111      0.7645      0.4890      0.2253       0.000    
   9    10.00       9.925       9.863       9.810       9.771       9.734       9.690       9.647       9.605       9.564    
        9.495       9.409       9.336       9.271       9.196       9.104       9.005       8.930       8.882       8.836    
        8.794       8.739       8.640       8.549       8.447       8.300       8.029       7.626       7.192       6.878    
        6.572       6.353       6.196       5.946       5.634       5.390       5.209       5.042       4.875       4.652    
        4.286       3.775       3.112       2.365       1.682       1.150      0.7799      0.4850      0.2404       0.000    
  10    10.00       9.924       9.861       9.817       9.783       9.747       9.708       9.671       9.622       9.557    
        9.474       9.387       9.316       9.245       9.166       9.059       8.960       8.900       8.857       8.811    
        8.768       8.677       8.571       8.471       8.331       8.110       7.708       7.272       6.930       6.692    
        6.509       6.329       6.120       5.864       5.599       5.413       5.277       5.139       4.951       4.693    
        4.299       3.739       3.030       2.363       1.822       1.317      0.8351      0.5149      0.2713       0.000    
  11    10.00       9.914       9.865       9.829       9.794       9.763       9.728       9.679       9.610       9.537    
        9.454       9.369       9.301       9.207       9.099       9.005       8.934       8.877       8.835       8.783    
        8.706       8.590       8.438       8.291       8.047       7.720       7.363       7.072       6.795       6.623    
        6.469       6.236       5.999       5.809       5.632       5.493       5.358       5.180       4.959       4.656    
        4.286       3.790       3.071       2.462       1.982       1.497      0.9620      0.5100      0.2047       0.000    
  12    10.00       9.921       9.873       9.835       9.806       9.773       9.735       9.668       9.587       9.513    
        9.434       9.349       9.258       9.145       9.056       8.975       8.901       8.853       8.798       8.721    
        8.572       8.373       8.161       7.941       7.640       7.389       7.199       6.903       6.673       6.536    
        6.372       6.156       5.966       5.805       5.689       5.564       5.402       5.201       4.936       4.619    
        4.253       3.768       3.109       2.564       2.128       1.604       1.012      0.4823      0.1604       0.000    
  13    10.00       9.939       9.894       9.853       9.816       9.778       9.722       9.641       9.556       9.483    
        9.400       9.316       9.220       9.103       9.001       8.920       8.868       8.806       8.730       8.550    
        8.279       8.037       7.807       7.532       7.296       7.182       6.950       6.680       6.561       6.446    
        6.269       6.082       5.945       5.833       5.736       5.622       5.436       5.185       4.925       4.596    
        4.232       3.738       3.056       2.547       2.143       1.569      0.9423      0.4362      0.1260       0.000    
  14    10.00       9.955       9.915       9.871       9.827       9.770       9.689       9.603       9.528       9.445    
        9.362       9.284       9.170       9.041       8.948       8.883       8.797       8.706       8.526       8.209    
        7.919       7.702       7.400       7.174       7.066       6.938       6.699       6.541       6.424       6.313    
        6.163       6.045       5.962       5.868       5.768       5.649       5.441       5.166       4.887       4.551    
        4.161       3.563       2.921       2.509       2.014       1.464      0.9295      0.3985      0.1026       0.000    
  15    10.00       9.965       9.924       9.880       9.830       9.744       9.644       9.569       9.494       9.414    
        9.351       9.261       9.111       8.970       8.885       8.773       8.658       8.541       8.239       7.867    
        7.625       7.318       7.040       6.954       6.887       6.720       6.527       6.374       6.289       6.207    
        6.114       6.045       5.979       5.901       5.794       5.649       5.408       5.096       4.801       4.491    
        4.068       3.485       2.929       2.375       1.777       1.284      0.7995      0.3513      0.1054       0.000    
  16    10.00       9.974       9.935       9.883       9.804       9.699       9.613       9.552       9.485       9.402    
        9.318       9.189       9.018       8.881       8.759       8.626       8.547       8.312       7.873       7.527    
        7.282       6.978       6.873       6.819       6.697       6.487       6.331       6.258       6.228       6.172    
        6.103       6.046       5.994       5.911       5.783       5.603       5.314       5.029       4.796       4.462    
        3.979       3.351       2.712       2.097       1.589       1.102      0.6813      0.3335      0.1125       0.000    
  17    10.00       9.974       9.933       9.865       9.768       9.663       9.591       9.535       9.460       9.368    
        9.230       9.066       8.911       8.762       8.610       8.482       8.289       7.895       7.481       7.240    
        6.998       6.810       6.726       6.607       6.414       6.257       6.215       6.204       6.185       6.135    
        6.081       6.037       5.990       5.914       5.733       5.485       5.236       5.033       4.811       4.390    
        3.745       3.105       2.495       1.892       1.359      0.8915      0.5711      0.2983      0.1225       0.000    
  18    10.00       9.968       9.920       9.840       9.719       9.634       9.578       9.502       9.416       9.289    
        9.122       8.976       8.819       8.620       8.420       8.207       7.925       7.522       7.210       6.997    
        6.799       6.640       6.513       6.342       6.210       6.168       6.157       6.152       6.127       6.090    
        6.057       6.022       5.967       5.840       5.651       5.439       5.227       5.045       4.734       4.172    
        3.512       2.831       2.180       1.685       1.261      0.8358      0.4905      0.2467      0.1182       0.000    
  19    10.00       9.961       9.908       9.791       9.671       9.621       9.559       9.466       9.360       9.224    
        9.071       8.933       8.708       8.405       8.166       7.946       7.602       7.232       7.020       6.856    
        6.651       6.458       6.318       6.186       6.121       6.106       6.100       6.081       6.051       6.037    
        6.019       5.989       5.910       5.785       5.624       5.418       5.225       4.963       4.431       3.847    
        3.315       2.611       1.993       1.600       1.179      0.7540      0.4429      0.2512      0.1287       0.000    
  20    10.00       9.953       9.864       9.744       9.657       9.603       9.536       9.436       9.319       9.195    
        9.038       8.828       8.491       8.188       7.975       7.701       7.358       7.154       6.960       6.731    
        6.505       6.332       6.187       6.093       6.045       6.021       5.993       5.985       5.970       5.973    
        5.968       5.941       5.858       5.739       5.574       5.393       5.152       4.676       4.099       3.632    
        3.055       2.407       1.945       1.565       1.140      0.6690      0.3867      0.2614      0.1347       0.000    
  21    10.00       9.921       9.827       9.727       9.641       9.585       9.512       9.396       9.280       9.163    
        8.953       8.632       8.287       8.057       7.817       7.527       7.271       7.078       6.844       6.601    
        6.383       6.214       6.087       5.988       5.922       5.873       5.857       5.865       5.869       5.883    
        5.897       5.863       5.778       5.664       5.497       5.297       4.919       4.416       3.958       3.391    
        2.844       2.333       1.943       1.558      0.9594      0.5414      0.3913      0.2953      0.1416       0.000    
  22    10.00       9.901       9.788       9.699       9.631       9.563       9.461       9.353       9.250       9.089    
        8.820       8.456       8.179       7.971       7.701       7.404       7.157       6.951       6.736       6.506    
        6.290       6.110       5.941       5.789       5.703       5.684       5.702       5.718       5.755       5.779    
        5.797       5.759       5.688       5.568       5.397       5.198       4.809       4.321       3.722       3.173    
        2.777       2.368       1.899       1.255      0.7477      0.5395      0.4101      0.2730      0.1010       0.000    
  23    10.00       9.872       9.762       9.692       9.620       9.519       9.407       9.327       9.196       8.994    
        8.678       8.365       8.167       7.907       7.556       7.258       7.064       6.896       6.695       6.447    
        6.219       6.008       5.766       5.481       5.274       5.318       5.454       5.544       5.624       5.677    
        5.696       5.670       5.602       5.490       5.328       5.101       4.708       4.104       3.503       3.115    
        2.750       2.235       1.562       1.011      0.7355      0.5500      0.3934      0.2320      9.2328E-02   0.000    
  24    10.00       9.852       9.773       9.689       9.587       9.481       9.395       9.306       9.180       8.911    
        8.614       8.383       8.158       7.812       7.425       7.211       7.047       6.881       6.653       6.419    
        6.217       5.950       5.562       5.023       4.364       4.636       5.041       5.323       5.489       5.574    
        5.611       5.591       5.534       5.411       5.231       4.948       4.451       3.879       3.428       3.024    
        2.575       2.002       1.401      0.9799      0.7367      0.5356      0.3587      0.2513      0.1234       0.000    
  25    10.00       9.869       9.788       9.682       9.575       9.478       9.393       9.310       9.121       8.859    
        8.630       8.396       8.102       7.721       7.434       7.243       7.057       6.858       6.650       6.449    
        6.216       5.960       5.407       4.379       2.548       3.916       4.659       5.102       5.373       5.512    
        5.555       5.541       5.473       5.305       5.061       4.678       4.211       3.762       3.374       2.901    
        2.360       1.812       1.306      0.9709      0.7635      0.5565      0.3780      0.2632      0.1638       0.000    
  26    10.00       9.887       9.807       9.696       9.582       9.493       9.402       9.280       9.092       8.910    
        8.696       8.376       8.015       7.706       7.490       7.304       7.089       6.844       6.642       6.474    
        6.281       6.029       5.552       4.799       3.963       4.321       4.772       5.103       5.355       5.500    
        5.530       5.502       5.396       5.195       4.926       4.560       4.045       3.620       3.258       2.685    
        2.074       1.595       1.293       1.060      0.8232      0.6008      0.4120      0.2859      0.1670       0.000    
  27    10.00       9.910       9.811       9.711       9.613       9.508       9.406       9.282       9.127       8.961    
        8.690       8.329       8.013       7.757       7.576       7.363       7.082       6.828       6.671       6.533    
        6.382       6.151       5.791       5.348       4.901       4.877       5.052       5.265       5.448       5.525    
        5.522       5.478       5.354       5.135       4.819       4.326       3.843       3.493       2.946       2.346    
        1.873       1.565       1.338       1.134      0.8999      0.6556      0.4475      0.3146      0.1985       0.000    
  28    10.00       9.916       9.835       9.744       9.647       9.536       9.423       9.303       9.169       8.973    
        8.656       8.342       8.067       7.817       7.625       7.415       7.187       6.944       6.722       6.581    
        6.461       6.297       6.066       5.747       5.477       5.321       5.359       5.492       5.551       5.563    
        5.528       5.458       5.304       5.027       4.611       4.101       3.687       3.198       2.630       2.205    
        1.869       1.608       1.386       1.173      0.9455      0.7154      0.5076      0.3582      0.2047       0.000    
  29    10.00       9.921       9.842       9.770       9.675       9.575       9.465       9.342       9.195       8.933    
        8.637       8.370       8.109       7.899       7.681       7.459       7.252       7.057       6.847       6.661    
        6.533       6.407       6.255       6.067       5.812       5.689       5.675       5.679       5.676       5.620    
        5.537       5.402       5.218       4.860       4.355       3.909       3.494       2.986       2.533       2.222    
        1.950       1.664       1.412       1.208       1.003      0.7565      0.5363      0.3743      0.2075       0.000    
  30    10.00       9.932       9.866       9.803       9.718       9.619       9.520       9.381       9.182       8.943    
        8.644       8.355       8.141       7.930       7.724       7.524       7.357       7.178       6.974       6.778    
        6.621       6.516       6.387       6.261       6.123       6.007       5.963       5.871       5.799       5.682    
        5.517       5.289       5.032       4.656       4.263       3.848       3.405       2.930       2.588       2.307    
        1.984       1.697       1.478       1.245       1.001      0.7828      0.5716      0.3975      0.2233       0.000    
  31    10.00       9.946       9.891       9.831       9.768       9.688       9.575       9.402       9.175       8.924    
        8.636       8.377       8.182       7.977       7.785       7.601       7.436       7.297       7.092       6.896    
        6.753       6.641       6.540       6.440       6.362       6.254       6.138       6.032       5.889       5.705    
        5.441       5.153       4.892       4.590       4.217       3.778       3.330       2.943       2.702       2.434    
        2.075       1.760       1.510       1.275       1.048      0.8234      0.6057      0.4183      0.2166       0.000    
  32    10.00       9.953       9.914       9.862       9.801       9.725       9.605       9.406       9.199       8.961    
        8.665       8.426       8.242       8.031       7.827       7.677       7.535       7.370       7.206       7.015    
        6.866       6.747       6.654       6.562       6.474       6.389       6.254       6.112       5.924       5.670    
        5.370       5.088       4.820       4.533       4.166       3.772       3.422       3.093       2.817       2.509    
        2.177       1.866       1.603       1.332       1.085      0.8953      0.6678      0.4103      0.1832       0.000    
  33    10.00       9.960       9.929       9.885       9.824       9.742       9.585       9.388       9.222       9.009    
        8.738       8.512       8.295       8.058       7.878       7.753       7.630       7.461       7.282       7.116    
        6.952       6.829       6.713       6.614       6.538       6.453       6.302       6.101       5.899       5.657    
        5.359       5.106       4.828       4.477       4.136       3.787       3.503       3.243       2.929       2.590    
        2.304       2.010       1.720       1.441       1.181      0.9692      0.7143      0.4122      0.1792       0.000    
  34    10.00       9.967       9.944       9.906       9.825       9.705       9.560       9.424       9.252       9.041    
        8.811       8.564       8.321       8.089       7.943       7.841       7.708       7.547       7.344       7.183    
        7.034       6.880       6.755       6.659       6.581       6.467       6.288       6.097       5.884       5.601    
        5.338       5.135       4.860       4.520       4.184       3.863       3.595       3.337       3.013       2.707    
        2.451       2.169       1.853       1.574       1.311       1.068      0.7638      0.4637      0.2431       0.000    
  35    10.00       9.973       9.944       9.889       9.790       9.673       9.569       9.451       9.312       9.085    
        8.832       8.585       8.339       8.149       8.020       7.913       7.771       7.599       7.402       7.211    
        7.053       6.908       6.780       6.689       6.603       6.487       6.293       6.066       5.815       5.520    
        5.322       5.109       4.831       4.583       4.302       3.967       3.671       3.455       3.150       2.825    
        2.578       2.289       1.972       1.698       1.424       1.158      0.8754      0.5802      0.2870       0.000    
  36    10.00       9.966       9.920       9.861       9.768       9.660       9.573       9.471       9.320       9.101    
        8.825       8.563       8.388       8.245       8.118       7.980       7.813       7.638       7.427       7.173    
        7.001       6.890       6.780       6.703       6.617       6.470       6.251       6.002       5.693       5.429    
        5.261       5.087       4.850       4.611       4.377       4.078       3.785       3.555       3.284       2.929    
        2.658       2.336       2.020       1.811       1.545       1.249      0.9656      0.6571      0.3215       0.000    
  37    10.00       9.948       9.899       9.839       9.749       9.654       9.555       9.458       9.319       9.063    
        8.776       8.576       8.474       8.336       8.178       8.040       7.832       7.615       7.344       7.085    
        6.972       6.879       6.773       6.688       6.586       6.405       6.182       5.855       5.573       5.402    
        5.257       5.073       4.840       4.653       4.415       4.132       3.903       3.683       3.378       2.988    
        2.633       2.331       2.112       1.894       1.628       1.347       1.064      0.7247      0.3979       0.000    
  38    10.00       9.941       9.877       9.815       9.735       9.645       9.540       9.435       9.275       9.034    
        8.820       8.662       8.532       8.407       8.235       8.009       7.774       7.521       7.218       7.046    
        6.955       6.832       6.721       6.651       6.533       6.331       6.003       5.696       5.550       5.420    
        5.268       5.073       4.864       4.678       4.446       4.190       4.002       3.778       3.389       2.960    
        2.653       2.400       2.182       1.958       1.722       1.437       1.155      0.8381      0.4141       0.000    
  39    10.00       9.924       9.861       9.805       9.729       9.626       9.514       9.405       9.255       9.058    
        8.890       8.770       8.624       8.450       8.200       7.915       7.650       7.353       7.139       7.029    
        6.891       6.748       6.664       6.595       6.480       6.210       5.881       5.699       5.566       5.432    
        5.261       5.077       4.876       4.691       4.515       4.305       4.059       3.788       3.405       3.005    
        2.680       2.419       2.248       2.060       1.795       1.512       1.226      0.8723      0.4087       0.000    
  40    10.00       9.915       9.855       9.798       9.719       9.613       9.504       9.396       9.263       9.099    
        8.960       8.854       8.672       8.400       8.084       7.798       7.518       7.264       7.109       6.970    
        6.811       6.686       6.616       6.529       6.375       6.133       5.914       5.732       5.584       5.445    
        5.278       5.081       4.891       4.737       4.583       4.371       4.086       3.803       3.414       2.986    
        2.681       2.475       2.286       2.126       1.846       1.537       1.275      0.8748      0.4073       0.000    
  41    10.00       9.922       9.853       9.784       9.699       9.615       9.524       9.424       9.292       9.142    
        9.010       8.880       8.643       8.318       7.993       7.726       7.451       7.210       7.057       6.906    
        6.746       6.637       6.558       6.455       6.296       6.116       5.969       5.794       5.609       5.446    
        5.285       5.108       4.927       4.793       4.629       4.418       4.133       3.742       3.296       2.966    
        2.745       2.546       2.350       2.127       1.837       1.540       1.316      0.9320      0.4226       0.000    
  42    10.00       9.922       9.843       9.783       9.720       9.642       9.545       9.431       9.318       9.203    
        9.033       8.807       8.532       8.222       7.920       7.676       7.408       7.174       7.009       6.838    
        6.689       6.593       6.506       6.412       6.269       6.144       6.020       5.821       5.614       5.468    
        5.337       5.144       4.950       4.820       4.668       4.443       4.093       3.632       3.224       2.978    
        2.812       2.633       2.385       2.087       1.809       1.577       1.344      0.9830      0.4850       0.000    
  43    10.00       9.915       9.849       9.797       9.747       9.672       9.576       9.468       9.342       9.162    
        8.941       8.708       8.451       8.128       7.857       7.632       7.391       7.154       6.946       6.787    
        6.653       6.557       6.483       6.406       6.285       6.157       6.030       5.825       5.644       5.537    
        5.378       5.169       4.982       4.849       4.672       4.380       3.976       3.539       3.241       3.053    
        2.876       2.671       2.366       2.061       1.814       1.591       1.391      0.9969      0.4555       0.000    
  44    10.00       9.915       9.857       9.810       9.750       9.694       9.615       9.469       9.281       9.073    
        8.887       8.652       8.341       8.071       7.855       7.596       7.332       7.082       6.876       6.736    
        6.639       6.557       6.482       6.403       6.299       6.167       5.997       5.827       5.705       5.578    
        5.434       5.253       5.039       4.835       4.619       4.293       3.869       3.510       3.279       3.098    
        2.919       2.676       2.381       2.117       1.853       1.614       1.368      0.9000      0.4139       0.000    
  45    10.00       9.924       9.870       9.809       9.751       9.701       9.572       9.398       9.208       9.029    
        8.876       8.561       8.238       8.042       7.809       7.522       7.235       7.004       6.837       6.727    
        6.652       6.575       6.494       6.400       6.285       6.156       6.012       5.881       5.775       5.642    
        5.476       5.288       5.068       4.810       4.553       4.201       3.803       3.520       3.346       3.158    
        2.920       2.642       2.389       2.148       1.915       1.676       1.278      0.7998      0.4025       0.000    
  46    10.00       9.939       9.881       9.809       9.742       9.645       9.504       9.372       9.212       9.021    
        8.767       8.467       8.208       7.959       7.711       7.433       7.166       6.996       6.859       6.753    
        6.679       6.603       6.500       6.383       6.272       6.163       6.050       5.930       5.822       5.705    
        5.556       5.357       5.107       4.802       4.434       4.069       3.775       3.575       3.392       3.197    
        2.915       2.619       2.367       2.176       1.953       1.642       1.190      0.7639      0.3766       0.000    
  47    10.00       9.950       9.895       9.824       9.709       9.581       9.460       9.357       9.210       8.958    
        8.653       8.378       8.153       7.944       7.681       7.379       7.144       6.982       6.873       6.784    
        6.703       6.615       6.506       6.384       6.275       6.190       6.096       5.978       5.854       5.739    
        5.609       5.442       5.110       4.682       4.324       4.061       3.815       3.643       3.481       3.211    
        2.868       2.554       2.326       2.194       1.947       1.567       1.125      0.7369      0.3723       0.000    
  48    10.00       9.955       9.899       9.792       9.674       9.564       9.442       9.337       9.189       8.904    
        8.572       8.341       8.157       7.902       7.594       7.322       7.145       6.982       6.874       6.805    
        6.722       6.616       6.499       6.387       6.298       6.230       6.146       6.016       5.872       5.748    
        5.612       5.411       5.065       4.710       4.390       4.101       3.881       3.705       3.498       3.155    
        2.785       2.544       2.362       2.130       1.805       1.468       1.089      0.7421      0.3929       0.000    
  49    10.00       9.953       9.868       9.765       9.676       9.557       9.439       9.328       9.141       8.839    
        8.542       8.322       8.091       7.833       7.601       7.348       7.102       6.950       6.884       6.819    
        6.741       6.619       6.484       6.386       6.318       6.268       6.172       6.021       5.870       5.758    
        5.610       5.346       5.041       4.790       4.522       4.202       3.918       3.700       3.457       3.089    
        2.792       2.580       2.329       1.993       1.706       1.402       1.071      0.7543      0.3841       0.000    
  50    10.00       9.940       9.847       9.753       9.681       9.570       9.439       9.298       9.096       8.858    
        8.557       8.262       8.021       7.816       7.629       7.345       7.065       6.950       6.892       6.829    
        6.754       6.617       6.473       6.384       6.330       6.284       6.176       6.014       5.870       5.755    
        5.594       5.317       5.082       4.867       4.577       4.259       3.971       3.682       3.331       3.006    
        2.848       2.625       2.260       1.922       1.681       1.391       1.104      0.7368      0.3026       0.000    

 HEAD WILL BE SAVED ON UNIT   51 AT END OF TIME STEP  44, STRESS PERIOD    2

 DRAWDOWN WILL BE SAVED ON UNIT   52 AT END OF TIME STEP  44, STRESS PERIOD    2
1
  VOLUMETRIC BUDGET FOR ENTIRE MODEL AT END OF TIME STEP 44 IN STRESS PERIOD   2
  ------------------------------------------------------------------------------

     CUMULATIVE VOLUMES      L**3       RATES FOR THIS TIME STEP      L**3/T
     ------------------                 ------------------------

           IN:                                      IN:
           ---                                      ---
             STORAGE =       21655.5449               STORAGE =         470.4782
       CONSTANT HEAD =       24633.3066         CONSTANT HEAD =         568.6301
               WELLS =           0.0000                 WELLS =           0.0000

            TOTAL IN =       46288.8516              TOTAL IN =        1039.1083

          OUT:                                     OUT:
          ----                                     ----
             STORAGE =       9.3745E-03               STORAGE =           0.0000
       CONSTANT HEAD =       24288.8359         CONSTANT HEAD =         539.1086
               WELLS =       22000.0000                 WELLS =         500.0000

           TOTAL OUT =       46288.8438             TOTAL OUT =        1039.1086

            IN - OUT =       7.8125E-03              IN - OUT =      -3.6621E-04

 PERCENT DISCREPANCY =           0.00     PERCENT DISCREPANCY =           0.00






          TIME SUMMARY AT END OF TIME STEP  44 IN STRESS PERIOD    2
                    SECONDS     MINUTES      HOURS       DAYS        YEARS
                    -----------------------------------------------------------
   TIME STEP LENGTH  86400.      1440.0      24.000      1.0000     2.73785E-03
 STRESS PERIOD TIME 3.80160E+06  63360.      1056.0      44.000     0.12047    
         TOTAL TIME 3.88800E+06  64800.      1080.0      45.000     0.12320    
1
 
 SOLVING FOR HEAD 

 OUTPUT CONTROL FOR STRESS PERIOD    2   TIME STEP  45
    SAVE HEAD FOR ALL LAYERS
    SAVE DRAWDOWN FOR ALL LAYERS
    SAVE BUDGET
    PRINT HEAD FOR ALL LAYERS
    PRINT BUDGET
 UBDSV1 SAVING "         STORAGE" ON UNIT  53 AT TIME STEP 45, STRESS PERIOD   2
 UBDSV2 SAVING "   CONSTANT HEAD" ON UNIT  53 AT TIME STEP 45, STRESS PERIOD   2
 UBDSV1 SAVING "FLOW RIGHT FACE " ON UNIT  53 AT TIME STEP 45, STRESS PERIOD   2
 UBDSV1 SAVING "FLOW FRONT FACE " ON UNIT  53 AT TIME STEP 45, STRESS PERIOD   2
1
              HEAD IN LAYER   1 AT END OF TIME STEP  45 IN STRESS PERIOD    2
  ---------------------------------------------------------------------------

            1           2           3           4           5           6           7           8           9          10
           11          12          13          14          15          16          17          18          19          20
           21          22          23          24          25          26          27          28          29          30
           31          32          33          34          35          36          37          38          39          40
           41          42          43          44          45          46          47          48          49          50
 ........................................................................................................................
   1    10.00       9.957       9.899       9.841       9.793       9.734       9.676       9.615       9.534       9.467    
        9.428       9.388       9.344       9.300       9.230       9.153       9.069       9.003       8.974       8.941    
        8.900       8.865       8.829       8.784       8.721       8.611       8.478       8.349       8.200       8.052    
        7.842       7.507       7.114       6.698       6.233       5.803       5.439       5.100       4.637       4.135    
        3.707       3.284       2.701       2.147       1.760       1.372       1.046      0.8355      0.5541       0.000    
   2    10.00       9.957       9.905       9.847       9.795       9.741       9.676       9.597       9.518       9.467    
        9.432       9.396       9.362       9.308       9.227       9.148       9.071       9.006       8.974       8.937    
        8.896       8.869       8.840       8.792       8.720       8.615       8.481       8.346       8.207       8.059    
        7.832       7.487       7.073       6.604       6.134       5.719       5.394       5.061       4.592       4.121    
        3.689       3.181       2.654       2.216       1.831       1.469       1.097      0.7935      0.4237       0.000    
   3    10.00       9.953       9.903       9.850       9.798       9.735       9.655       9.579       9.529       9.482    
        9.441       9.410       9.377       9.326       9.245       9.146       9.065       9.012       8.972       8.934    
        8.900       8.871       8.842       8.782       8.705       8.598       8.472       8.370       8.223       8.048    
        7.755       7.354       6.914       6.459       6.026       5.640       5.349       5.007       4.500       4.041    
        3.682       3.218       2.733       2.312       1.912       1.547       1.107      0.6809      0.2995       0.000    
   4    10.00       9.957       9.906       9.848       9.783       9.711       9.634       9.578       9.536       9.491    
        9.456       9.430       9.393       9.337       9.263       9.155       9.065       9.015       8.972       8.937    
        8.898       8.864       8.828       8.764       8.685       8.582       8.459       8.345       8.231       8.012    
        7.633       7.144       6.674       6.326       6.002       5.628       5.254       4.820       4.392       4.057    
        3.737       3.327       2.840       2.425       2.005       1.563       1.056      0.6046      0.2816       0.000    
   5    10.00       9.953       9.900       9.833       9.767       9.699       9.633       9.585       9.541       9.503    
        9.472       9.444       9.401       9.336       9.250       9.151       9.074       9.020       8.976       8.927    
        8.882       8.847       8.801       8.736       8.661       8.544       8.421       8.324       8.209       7.930    
        7.434       6.898       6.510       6.245       5.953       5.574       5.148       4.720       4.416       4.132    
        3.843       3.419       2.912       2.549       2.122       1.543      0.9609      0.5581      0.2807       0.000    
   6    10.00       9.942       9.878       9.827       9.764       9.694       9.638       9.595       9.549       9.514    
        9.485       9.451       9.396       9.321       9.247       9.165       9.082       9.015       8.958       8.902    
        8.862       8.825       8.782       8.713       8.604       8.492       8.400       8.294       8.102       7.702    
        7.151       6.667       6.370       6.171       5.935       5.520       5.057       4.717       4.493       4.244    
        3.963       3.580       3.077       2.625       2.096       1.476      0.8616      0.4908      0.2742       0.000    
   7    10.00       9.926       9.866       9.815       9.755       9.705       9.651       9.606       9.568       9.531    
        9.493       9.444       9.377       9.304       9.237       9.170       9.078       8.987       8.927       8.881    
        8.841       8.801       8.757       8.665       8.553       8.463       8.363       8.193       7.871       7.362    
        6.841       6.464       6.280       6.125       5.825       5.416       5.110       4.813       4.570       4.398    
        4.113       3.717       3.178       2.593       1.942       1.230      0.7222      0.4983      0.2523       0.000    
   8    10.00       9.921       9.866       9.812       9.758       9.713       9.667       9.624       9.587       9.551    
        9.497       9.425       9.355       9.291       9.228       9.145       9.036       8.951       8.904       8.861    
        8.814       8.780       8.708       8.610       8.510       8.404       8.216       7.948       7.507       7.068    
        6.680       6.382       6.242       6.053       5.716       5.400       5.147       4.929       4.733       4.530    
        4.235       3.746       3.123       2.456       1.714       1.110      0.7643      0.4888      0.2252       0.000    
   9    10.00       9.925       9.862       9.809       9.771       9.733       9.688       9.646       9.604       9.563    
        9.494       9.407       9.334       9.269       9.194       9.100       9.002       8.926       8.878       8.832    
        8.790       8.735       8.636       8.544       8.442       8.294       8.023       7.620       7.185       6.870    
        6.564       6.346       6.189       5.939       5.628       5.384       5.203       5.037       4.870       4.648    
        4.282       3.772       3.110       2.364       1.681       1.149      0.7796      0.4848      0.2404       0.000    
  10    10.00       9.924       9.860       9.816       9.782       9.746       9.707       9.670       9.620       9.556    
        9.472       9.385       9.314       9.242       9.163       9.056       8.956       8.896       8.853       8.807    
        8.763       8.672       8.566       8.466       8.325       8.104       7.700       7.264       6.921       6.684    
        6.501       6.321       6.112       5.856       5.591       5.406       5.271       5.133       4.946       4.689    
        4.296       3.736       3.028       2.362       1.821       1.317      0.8349      0.5148      0.2713       0.000    
  11    10.00       9.914       9.865       9.828       9.794       9.762       9.727       9.677       9.608       9.535    
        9.452       9.367       9.298       9.204       9.096       9.001       8.930       8.873       8.830       8.779    
        8.701       8.584       8.432       8.284       8.040       7.711       7.354       7.062       6.786       6.614    
        6.460       6.227       5.990       5.800       5.624       5.486       5.351       5.174       4.953       4.651    
        4.283       3.788       3.070       2.461       1.981       1.497      0.9618      0.5099      0.2047       0.000    
  12    10.00       9.921       9.873       9.834       9.805       9.772       9.734       9.667       9.585       9.511    
        9.432       9.347       9.255       9.141       9.052       8.971       8.896       8.848       8.794       8.716    
        8.566       8.366       8.154       7.933       7.630       7.378       7.189       6.891       6.662       6.525    
        6.361       6.146       5.957       5.796       5.680       5.556       5.395       5.195       4.931       4.614    
        4.250       3.765       3.107       2.563       2.127       1.603       1.012      0.4822      0.1603       0.000    
  13    10.00       9.938       9.894       9.852       9.815       9.777       9.721       9.639       9.554       9.481    
        9.398       9.312       9.216       9.099       8.997       8.916       8.863       8.801       8.724       8.543    
        8.271       8.028       7.797       7.521       7.284       7.170       6.937       6.667       6.548       6.434    
        6.258       6.071       5.935       5.823       5.727       5.613       5.428       5.179       4.919       4.591    
        4.228       3.735       3.055       2.546       2.142       1.569      0.9421      0.4361      0.1260       0.000    
  14    10.00       9.955       9.915       9.871       9.827       9.769       9.688       9.602       9.526       9.442    
        9.359       9.281       9.166       9.036       8.943       8.877       8.792       8.700       8.519       8.200    
        7.909       7.691       7.388       7.160       7.052       6.924       6.685       6.527       6.410       6.300    
        6.151       6.033       5.950       5.858       5.758       5.640       5.433       5.159       4.880       4.546    
        4.157       3.560       2.919       2.508       2.013       1.463      0.9293      0.3984      0.1026       0.000    
  15    10.00       9.964       9.924       9.880       9.829       9.742       9.643       9.567       9.492       9.411    
        9.348       9.257       9.107       8.965       8.879       8.766       8.651       8.534       8.230       7.855    
        7.613       7.305       7.026       6.939       6.872       6.705       6.512       6.359       6.274       6.193    
        6.101       6.032       5.967       5.889       5.784       5.639       5.400       5.088       4.795       4.486    
        4.064       3.483       2.928       2.374       1.776       1.284      0.7993      0.3512      0.1054       0.000    
  16    10.00       9.974       9.934       9.882       9.804       9.697       9.612       9.550       9.482       9.399    
        9.315       9.185       9.012       8.875       8.752       8.619       8.539       8.303       7.861       7.514    
        7.268       6.963       6.858       6.804       6.681       6.471       6.315       6.242       6.213       6.157    
        6.089       6.033       5.981       5.899       5.771       5.593       5.306       5.022       4.789       4.456    
        3.975       3.349       2.711       2.096       1.588       1.101      0.6811      0.3334      0.1124       0.000    
  17    10.00       9.974       9.932       9.865       9.767       9.661       9.589       9.533       9.457       9.365    
        9.226       9.060       8.905       8.755       8.602       8.473       8.279       7.883       7.467       7.225    
        6.983       6.794       6.710       6.590       6.397       6.240       6.198       6.188       6.169       6.120    
        6.067       6.023       5.976       5.901       5.721       5.475       5.227       5.025       4.804       4.384    
        3.741       3.102       2.494       1.891       1.358      0.8912      0.5710      0.2982      0.1225       0.000    
  18    10.00       9.968       9.920       9.839       9.717       9.632       9.575       9.499       9.413       9.285    
        9.117       8.970       8.812       8.611       8.410       8.196       7.912       7.507       7.194       6.981    
        6.782       6.623       6.497       6.325       6.193       6.151       6.140       6.135       6.111       6.074    
        6.041       6.007       5.953       5.827       5.639       5.428       5.218       5.037       4.727       4.167    
        3.509       2.829       2.179       1.685       1.260      0.8355      0.4904      0.2466      0.1182       0.000    
  19    10.00       9.961       9.907       9.790       9.670       9.619       9.557       9.463       9.356       9.219    
        9.066       8.927       8.700       8.395       8.155       7.934       7.588       7.216       7.004       6.839    
        6.634       6.440       6.301       6.168       6.103       6.088       6.082       6.064       6.035       6.021    
        6.003       5.974       5.895       5.772       5.612       5.407       5.215       4.955       4.425       3.843    
        3.312       2.609       1.992       1.599       1.178      0.7538      0.4428      0.2511      0.1286       0.000    
  20    10.00       9.952       9.863       9.743       9.655       9.601       9.533       9.433       9.315       9.190    
        9.032       8.820       8.481       8.177       7.962       7.687       7.342       7.138       6.944       6.714    
        6.487       6.314       6.169       6.075       6.028       6.004       5.975       5.967       5.953       5.956    
        5.951       5.925       5.843       5.726       5.562       5.382       5.142       4.669       4.094       3.629    
        3.053       2.406       1.944       1.564       1.139      0.6688      0.3866      0.2614      0.1347       0.000    
  21    10.00       9.921       9.826       9.725       9.639       9.582       9.509       9.393       9.275       9.157    
        8.947       8.623       8.276       8.044       7.803       7.513       7.255       7.061       6.827       6.583    
        6.365       6.195       6.068       5.970       5.904       5.855       5.839       5.847       5.851       5.865    
        5.879       5.846       5.763       5.650       5.484       5.286       4.911       4.410       3.954       3.388    
        2.842       2.332       1.942       1.557      0.9591      0.5412      0.3913      0.2952      0.1415       0.000    
  22    10.00       9.900       9.786       9.697       9.629       9.560       9.458       9.349       9.245       9.083    
        8.813       8.445       8.167       7.958       7.687       7.388       7.141       6.934       6.719       6.488    
        6.272       6.092       5.922       5.770       5.685       5.666       5.684       5.700       5.737       5.760    
        5.779       5.742       5.672       5.554       5.384       5.186       4.801       4.315       3.718       3.171    
        2.775       2.367       1.898       1.255      0.7475      0.5394      0.4100      0.2729      0.1009       0.000    
  23    10.00       9.872       9.760       9.690       9.618       9.516       9.404       9.323       9.191       8.987    
        8.670       8.355       8.155       7.894       7.541       7.242       7.047       6.879       6.677       6.429    
        6.200       5.990       5.747       5.462       5.255       5.299       5.435       5.525       5.605       5.658    
        5.678       5.653       5.585       5.475       5.315       5.090       4.699       4.098       3.500       3.113    
        2.748       2.234       1.562       1.011      0.7354      0.5498      0.3933      0.2320      9.2313E-02   0.000    
  24    10.00       9.851       9.771       9.687       9.584       9.478       9.392       9.302       9.175       8.904    
        8.605       8.372       8.146       7.798       7.410       7.195       7.030       6.864       6.635       6.401    
        6.198       5.931       5.543       5.003       4.344       4.617       5.021       5.304       5.470       5.555    
        5.592       5.574       5.518       5.396       5.218       4.937       4.443       3.874       3.425       3.021    
        2.574       2.001       1.401      0.9797      0.7365      0.5355      0.3587      0.2513      0.1234       0.000    
  25    10.00       9.868       9.786       9.680       9.573       9.475       9.389       9.306       9.115       8.852    
        8.621       8.386       8.090       7.707       7.419       7.227       7.040       6.841       6.632       6.431    
        6.197       5.942       5.387       4.360       2.527       3.896       4.639       5.081       5.354       5.492    
        5.537       5.523       5.457       5.291       5.048       4.668       4.204       3.757       3.371       2.899    
        2.358       1.812       1.306      0.9707      0.7633      0.5564      0.3779      0.2632      0.1638       0.000    
  26    10.00       9.886       9.806       9.694       9.579       9.490       9.398       9.275       9.087       8.903    
        8.688       8.365       8.003       7.692       7.475       7.288       7.072       6.827       6.625       6.456    
        6.263       6.011       5.533       4.779       3.943       4.300       4.752       5.083       5.335       5.481    
        5.511       5.485       5.380       5.181       4.914       4.551       4.039       3.615       3.255       2.683    
        2.073       1.594       1.293       1.060      0.8231      0.6007      0.4119      0.2858      0.1670       0.000    
  27    10.00       9.909       9.810       9.709       9.610       9.505       9.402       9.278       9.122       8.954    
        8.682       8.318       8.001       7.744       7.562       7.347       7.066       6.811       6.653       6.516    
        6.364       6.133       5.772       5.329       4.881       4.857       5.032       5.245       5.428       5.506    
        5.503       5.461       5.338       5.121       4.809       4.318       3.837       3.489       2.944       2.345    
        1.872       1.565       1.338       1.134      0.8998      0.6555      0.4474      0.3146      0.1985       0.000    
  28    10.00       9.915       9.834       9.742       9.645       9.533       9.419       9.299       9.164       8.967    
        8.648       8.332       8.055       7.804       7.611       7.401       7.172       6.927       6.705       6.563    
        6.443       6.279       6.047       5.728       5.457       5.301       5.339       5.472       5.532       5.544    
        5.510       5.441       5.289       5.015       4.602       4.095       3.683       3.195       2.628       2.204    
        1.869       1.608       1.386       1.173      0.9454      0.7153      0.5075      0.3582      0.2047       0.000    
  29    10.00       9.921       9.841       9.769       9.673       9.573       9.462       9.339       9.190       8.926    
        8.629       8.360       8.098       7.886       7.667       7.444       7.237       7.041       6.830       6.644    
        6.516       6.390       6.238       6.049       5.793       5.669       5.655       5.660       5.657       5.602    
        5.520       5.387       5.205       4.850       4.348       3.905       3.490       2.984       2.531       2.221    
        1.949       1.664       1.412       1.208       1.003      0.7564      0.5363      0.3742      0.2075       0.000    
  30    10.00       9.931       9.865       9.802       9.716       9.617       9.517       9.377       9.177       8.937    
        8.636       8.345       8.130       7.919       7.711       7.510       7.343       7.163       6.958       6.762    
        6.604       6.498       6.370       6.243       6.105       5.989       5.945       5.853       5.781       5.665    
        5.502       5.276       5.022       4.648       4.258       3.844       3.402       2.929       2.587       2.306    
        1.983       1.697       1.477       1.245       1.001      0.7827      0.5716      0.3974      0.2233       0.000    
  31    10.00       9.945       9.891       9.830       9.767       9.686       9.573       9.399       9.170       8.917    
        8.628       8.368       8.172       7.965       7.773       7.588       7.423       7.282       7.077       6.881    
        6.737       6.624       6.523       6.423       6.346       6.237       6.121       6.015       5.873       5.691    
        5.429       5.144       4.884       4.584       4.212       3.775       3.328       2.942       2.701       2.434    
        2.074       1.760       1.510       1.275       1.047      0.8233      0.6056      0.4182      0.2165       0.000    
  32    10.00       9.953       9.914       9.861       9.800       9.724       9.603       9.402       9.194       8.955    
        8.657       8.417       8.233       8.020       7.816       7.664       7.522       7.356       7.192       7.000    
        6.851       6.732       6.638       6.547       6.459       6.373       6.238       6.097       5.910       5.658    
        5.361       5.080       4.814       4.528       4.163       3.770       3.420       3.091       2.815       2.508    
        2.176       1.866       1.603       1.332       1.085      0.8952      0.6677      0.4103      0.1832       0.000    
  33    10.00       9.960       9.929       9.884       9.823       9.741       9.583       9.385       9.218       9.003    
        8.732       8.504       8.286       8.048       7.867       7.741       7.618       7.449       7.268       7.102    
        6.938       6.815       6.698       6.600       6.523       6.438       6.287       6.088       5.888       5.647    
        5.351       5.100       4.823       4.472       4.132       3.785       3.501       3.242       2.928       2.590    
        2.303       2.009       1.720       1.441       1.181      0.9691      0.7143      0.4122      0.1792       0.000    
  34    10.00       9.967       9.943       9.905       9.824       9.704       9.558       9.421       9.248       9.037    
        8.805       8.557       8.313       8.080       7.933       7.830       7.697       7.535       7.332       7.170    
        7.021       6.867       6.742       6.645       6.568       6.454       6.276       6.086       5.874       5.593    
        5.332       5.129       4.856       4.517       4.181       3.862       3.594       3.336       3.013       2.707    
        2.451       2.169       1.853       1.574       1.311       1.068      0.7638      0.4637      0.2431       0.000    
  35    10.00       9.972       9.943       9.889       9.789       9.672       9.567       9.449       9.309       9.081    
        8.827       8.578       8.331       8.140       8.011       7.903       7.760       7.589       7.391       7.199    
        7.042       6.897       6.769       6.677       6.592       6.476       6.282       6.057       5.807       5.514    
        5.317       5.105       4.829       4.581       4.300       3.966       3.670       3.454       3.150       2.824    
        2.578       2.288       1.972       1.698       1.424       1.158      0.8754      0.5801      0.2870       0.000    
  36    10.00       9.966       9.919       9.860       9.767       9.658       9.571       9.469       9.318       9.097    
        8.820       8.557       8.382       8.238       8.110       7.971       7.803       7.628       7.417       7.163    
        6.992       6.881       6.771       6.693       6.607       6.460       6.243       5.994       5.688       5.425    
        5.257       5.084       4.848       4.610       4.376       4.077       3.784       3.555       3.283       2.929    
        2.658       2.336       2.020       1.811       1.544       1.249      0.9656      0.6571      0.3215       0.000    
  37    10.00       9.948       9.898       9.839       9.748       9.653       9.553       9.456       9.317       9.060    
        8.771       8.570       8.468       8.329       8.170       8.032       7.824       7.607       7.336       7.077    
        6.964       6.871       6.764       6.680       6.578       6.398       6.176       5.850       5.570       5.399    
        5.255       5.071       4.838       4.651       4.414       4.132       3.902       3.682       3.378       2.988    
        2.633       2.331       2.111       1.894       1.628       1.347       1.064      0.7246      0.3979       0.000    
  38    10.00       9.940       9.877       9.814       9.735       9.644       9.539       9.433       9.273       9.031    
        8.816       8.657       8.527       8.401       8.229       8.002       7.767       7.513       7.211       7.039    
        6.948       6.825       6.715       6.644       6.527       6.325       5.998       5.693       5.547       5.418    
        5.266       5.072       4.862       4.677       4.445       4.189       4.002       3.778       3.389       2.960    
        2.652       2.400       2.182       1.958       1.722       1.437       1.155      0.8380      0.4141       0.000    
  39    10.00       9.923       9.861       9.805       9.728       9.625       9.513       9.404       9.253       9.056    
        8.887       8.766       8.619       8.445       8.194       7.909       7.645       7.348       7.133       7.023    
        6.885       6.742       6.659       6.590       6.476       6.206       5.878       5.696       5.564       5.431    
        5.259       5.076       4.875       4.690       4.514       4.304       4.058       3.787       3.404       3.005    
        2.680       2.419       2.248       2.060       1.794       1.512       1.226      0.8723      0.4087       0.000    
  40    10.00       9.915       9.855       9.798       9.718       9.612       9.503       9.395       9.261       9.096    
        8.958       8.851       8.669       8.396       8.080       7.794       7.514       7.260       7.105       6.966    
        6.806       6.682       6.612       6.525       6.372       6.131       5.911       5.730       5.582       5.444    
        5.276       5.080       4.890       4.736       4.582       4.370       4.086       3.803       3.414       2.985    
        2.681       2.475       2.286       2.126       1.846       1.537       1.275      0.8747      0.4072       0.000    
  41    10.00       9.922       9.853       9.784       9.698       9.614       9.523       9.423       9.290       9.140    
        9.008       8.877       8.640       8.315       7.990       7.722       7.448       7.206       7.054       6.902    
        6.742       6.634       6.555       6.452       6.294       6.114       5.967       5.792       5.607       5.444    
        5.284       5.107       4.926       4.792       4.629       4.417       4.133       3.742       3.296       2.966    
        2.745       2.546       2.350       2.127       1.836       1.540       1.316      0.9319      0.4226       0.000    
  42    10.00       9.922       9.843       9.782       9.720       9.642       9.545       9.430       9.317       9.202    
        9.031       8.805       8.530       8.220       7.917       7.674       7.405       7.171       7.006       6.835    
        6.687       6.591       6.503       6.409       6.267       6.142       6.018       5.820       5.613       5.467    
        5.336       5.143       4.949       4.819       4.668       4.442       4.093       3.632       3.223       2.978    
        2.811       2.633       2.384       2.087       1.809       1.577       1.344      0.9829      0.4850       0.000    
  43    10.00       9.915       9.849       9.796       9.746       9.672       9.576       9.467       9.340       9.161    
        8.940       8.707       8.449       8.126       7.855       7.630       7.389       7.152       6.944       6.785    
        6.651       6.555       6.481       6.404       6.284       6.155       6.029       5.823       5.643       5.536    
        5.377       5.168       4.982       4.848       4.671       4.379       3.975       3.539       3.241       3.053    
        2.876       2.671       2.366       2.061       1.814       1.591       1.391      0.9968      0.4555       0.000    
  44    10.00       9.915       9.857       9.810       9.750       9.693       9.614       9.468       9.280       9.072    
        8.886       8.651       8.340       8.069       7.853       7.595       7.331       7.080       6.874       6.735    
        6.637       6.555       6.480       6.401       6.297       6.166       5.996       5.825       5.704       5.576    
        5.433       5.252       5.038       4.834       4.619       4.292       3.869       3.509       3.279       3.097    
        2.919       2.676       2.381       2.117       1.853       1.613       1.368      0.8999      0.4138       0.000    
  45    10.00       9.924       9.870       9.809       9.750       9.701       9.571       9.397       9.207       9.028    
        8.875       8.560       8.237       8.040       7.807       7.520       7.233       7.002       6.836       6.725    
        6.651       6.573       6.492       6.398       6.283       6.154       6.011       5.880       5.773       5.640    
        5.475       5.287       5.067       4.809       4.552       4.200       3.803       3.520       3.345       3.158    
        2.920       2.641       2.388       2.148       1.914       1.676       1.278      0.7997      0.4025       0.000    
  46    10.00       9.939       9.881       9.809       9.742       9.645       9.503       9.371       9.212       9.021    
        8.766       8.466       8.207       7.958       7.709       7.431       7.165       6.994       6.858       6.752    
        6.677       6.602       6.498       6.382       6.270       6.162       6.049       5.929       5.821       5.704    
        5.555       5.357       5.106       4.801       4.433       4.068       3.775       3.575       3.392       3.197    
        2.915       2.619       2.367       2.176       1.953       1.642       1.189      0.7639      0.3766       0.000    
  47    10.00       9.950       9.895       9.824       9.709       9.581       9.460       9.356       9.209       8.957    
        8.652       8.377       8.152       7.943       7.680       7.378       7.142       6.981       6.871       6.783    
        6.702       6.613       6.505       6.382       6.274       6.188       6.095       5.976       5.853       5.738    
        5.608       5.442       5.109       4.682       4.323       4.061       3.815       3.643       3.481       3.211    
        2.868       2.553       2.325       2.194       1.947       1.567       1.125      0.7368      0.3723       0.000    
  48    10.00       9.955       9.899       9.792       9.674       9.563       9.442       9.337       9.188       8.903    
        8.571       8.341       8.156       7.901       7.593       7.321       7.144       6.981       6.872       6.803    
        6.721       6.615       6.498       6.386       6.297       6.228       6.145       6.014       5.871       5.747    
        5.611       5.411       5.064       4.710       4.390       4.100       3.881       3.704       3.498       3.154    
        2.785       2.544       2.362       2.129       1.805       1.468       1.089      0.7421      0.3929       0.000    
  49    10.00       9.953       9.867       9.765       9.675       9.557       9.438       9.328       9.140       8.839    
        8.541       8.321       8.090       7.832       7.600       7.346       7.101       6.949       6.883       6.818    
        6.740       6.618       6.482       6.385       6.317       6.266       6.171       6.020       5.869       5.757    
        5.609       5.346       5.041       4.790       4.521       4.202       3.918       3.700       3.457       3.089    
        2.792       2.579       2.329       1.993       1.706       1.402       1.071      0.7543      0.3841       0.000    
  50    10.00       9.940       9.846       9.752       9.681       9.570       9.439       9.298       9.095       8.857    
        8.556       8.261       8.020       7.815       7.628       7.344       7.064       6.949       6.891       6.828    
        6.753       6.616       6.471       6.383       6.329       6.282       6.175       6.013       5.869       5.754    
        5.593       5.317       5.082       4.866       4.576       4.258       3.971       3.681       3.331       3.006    
        2.848       2.625       2.260       1.922       1.681       1.391       1.104      0.7367      0.3026       0.000    

 HEAD WILL BE SAVED ON UNIT   51 AT END OF TIME STEP  45, STRESS PERIOD    2

 DRAWDOWN WILL BE SAVED ON UNIT   52 AT END OF TIME STEP  45, STRESS PERIOD    2
1
  VOLUMETRIC BUDGET FOR ENTIRE MODEL AT END OF TIME STEP 45 IN STRESS PERIOD   2
  ------------------------------------------------------------------------------

     CUMULATIVE VOLUMES      L**3       RATES FOR THIS TIME STEP      L**3/T
     ------------------                 ------------------------

           IN:                                      IN:
           ---                                      ---
             STORAGE =       22124.3359               STORAGE =         468.7903
       CONSTANT HEAD =       25203.5430         CONSTANT HEAD =         570.2367
               WELLS =           0.0000                 WELLS =           0.0000

            TOTAL IN =       47327.8789              TOTAL IN =        1039.0270

          OUT:                                     OUT:
          ----                                     ----
             STORAGE =       9.3745E-03               STORAGE =           0.0000
       CONSTANT HEAD =       24827.8613         CONSTANT HEAD =         539.0263
               WELLS =       22500.0000                 WELLS =         500.0000

           TOTAL OUT =       47327.8711             TOTAL OUT =        1039.0264

            IN - OUT =       7.8125E-03              IN - OUT =       6.1035E-04

 PERCENT DISCREPANCY =           0.00     PERCENT DISCREPANCY =           0.00






          TIME SUMMARY AT END OF TIME STEP  45 IN STRESS PERIOD    2
                    SECONDS     MINUTES      HOURS       DAYS        YEARS
                    -----------------------------------------------------------
   TIME STEP LENGTH  86400.      1440.0      24.000      1.0000     2.73785E-03
 STRESS PERIOD TIME 3.88800E+06  64800.      1080.0      45.000     0.12320    
         TOTAL TIME 3.97440E+06  66240.      1104.0      46.000     0.12594    
1
 
 SOLVING FOR HEAD 

 OUTPUT CONTROL FOR STRESS PERIOD    2   TIME STEP  46
    SAVE HEAD FOR ALL LAYERS
    SAVE DRAWDOWN FOR ALL LAYERS
    SAVE BUDGET
    PRINT HEAD FOR ALL LAYERS
    PRINT BUDGET
 UBDSV1 SAVING "         STORAGE" ON UNIT  53 AT TIME STEP 46, STRESS PERIOD   2
 UBDSV2 SAVING "   CONSTANT HEAD" ON UNIT  53 AT TIME STEP 46, STRESS PERIOD   2
 UBDSV1 SAVING "FLOW RIGHT FACE " ON UNIT  53 AT TIME STEP 46, STRESS PERIOD   2
 UBDSV1 SAVING "FLOW FRONT FACE " ON UNIT  53 AT TIME STEP 46, STRESS PERIOD   2
1
              HEAD IN LAYER   1 AT END OF TIME STEP  46 IN STRESS PERIOD    2
  ---------------------------------------------------------------------------

            1           2           3           4           5           6           7           8           9          10
           11          12          13          14          15          16          17          18          19          20
           21          22          23          24          25          26          27          28          29          30
           31          32          33          34          35          36          37          38          39          40
           41          42          43          44          45          46          47          48          49          50
 ........................................................................................................................
   1    10.00       9.957       9.899       9.841       9.792       9.733       9.675       9.614       9.532       9.465    
        9.426       9.386       9.342       9.298       9.228       9.150       9.066       9.001       8.971       8.938    
        8.897       8.862       8.826       8.781       8.718       8.608       8.475       8.346       8.197       8.049    
        7.839       7.505       7.111       6.696       6.231       5.801       5.437       5.098       4.636       4.133    
        3.706       3.283       2.700       2.147       1.759       1.371       1.045      0.8353      0.5539       0.000    
   2    10.00       9.957       9.905       9.846       9.795       9.740       9.675       9.595       9.517       9.465    
        9.430       9.394       9.360       9.306       9.225       9.145       9.068       9.003       8.971       8.934    
        8.893       8.866       8.837       8.789       8.717       8.612       8.478       8.343       8.204       8.056    
        7.829       7.484       7.070       6.601       6.132       5.717       5.391       5.059       4.590       4.119    
        3.688       3.179       2.653       2.215       1.830       1.468       1.097      0.7933      0.4235       0.000    
   3    10.00       9.953       9.903       9.849       9.797       9.734       9.654       9.578       9.528       9.481    
        9.440       9.408       9.375       9.324       9.243       9.143       9.062       9.009       8.969       8.931    
        8.897       8.868       8.839       8.779       8.701       8.595       8.468       8.367       8.220       8.045    
        7.752       7.352       6.911       6.456       6.024       5.638       5.347       5.005       4.498       4.039    
        3.680       3.217       2.732       2.311       1.911       1.546       1.107      0.6806      0.2993       0.000    
   4    10.00       9.957       9.905       9.847       9.783       9.710       9.633       9.577       9.534       9.490    
        9.454       9.428       9.391       9.335       9.261       9.153       9.062       9.013       8.969       8.934    
        8.895       8.861       8.824       8.760       8.681       8.579       8.455       8.342       8.227       8.008    
        7.630       7.141       6.670       6.322       5.999       5.625       5.251       4.818       4.389       4.055    
        3.735       3.325       2.839       2.424       2.005       1.562       1.056      0.6044      0.2815       0.000    
   5    10.00       9.953       9.899       9.833       9.766       9.698       9.632       9.584       9.539       9.501    
        9.470       9.442       9.399       9.334       9.248       9.149       9.071       9.017       8.973       8.924    
        8.878       8.843       8.798       8.732       8.658       8.540       8.418       8.320       8.205       7.926    
        7.431       6.894       6.506       6.241       5.949       5.571       5.145       4.717       4.413       4.129    
        3.840       3.417       2.911       2.548       2.121       1.542      0.9606      0.5579      0.2806       0.000    
   6    10.00       9.942       9.878       9.826       9.763       9.693       9.637       9.593       9.548       9.513    
        9.484       9.449       9.394       9.318       9.244       9.162       9.079       9.012       8.955       8.899    
        8.859       8.821       8.779       8.710       8.600       8.488       8.396       8.290       8.098       7.698    
        7.147       6.662       6.365       6.166       5.930       5.516       5.053       4.713       4.489       4.241    
        3.960       3.577       3.075       2.623       2.095       1.475      0.8613      0.4906      0.2741       0.000    
   7    10.00       9.926       9.865       9.815       9.754       9.704       9.650       9.605       9.566       9.529    
        9.492       9.442       9.375       9.302       9.235       9.167       9.075       8.984       8.923       8.877    
        8.838       8.797       8.753       8.661       8.549       8.459       8.359       8.189       7.866       7.357    
        6.836       6.458       6.274       6.120       5.820       5.411       5.106       4.809       4.567       4.394    
        4.110       3.714       3.176       2.591       1.941       1.229      0.7219      0.4981      0.2523       0.000    
   8    10.00       9.921       9.865       9.811       9.757       9.712       9.666       9.623       9.585       9.549    
        9.495       9.424       9.353       9.289       9.226       9.142       9.032       8.947       8.901       8.857    
        8.810       8.776       8.704       8.606       8.506       8.399       8.211       7.942       7.501       7.061    
        6.673       6.375       6.235       6.047       5.710       5.394       5.141       4.924       4.729       4.526    
        4.231       3.743       3.121       2.455       1.713       1.110      0.7640      0.4886      0.2251       0.000    
   9    10.00       9.925       9.862       9.809       9.770       9.732       9.687       9.645       9.602       9.561    
        9.492       9.405       9.332       9.266       9.191       9.097       8.998       8.923       8.874       8.828    
        8.786       8.730       8.631       8.540       8.437       8.289       8.017       7.613       7.177       6.862    
        6.557       6.338       6.182       5.932       5.621       5.378       5.198       5.032       4.865       4.644    
        4.279       3.769       3.108       2.363       1.680       1.149      0.7794      0.4847      0.2403       0.000    
  10    10.00       9.923       9.860       9.816       9.781       9.745       9.706       9.668       9.619       9.554    
        9.470       9.382       9.311       9.240       9.160       9.052       8.953       8.892       8.849       8.802    
        8.759       8.668       8.561       8.460       8.319       8.097       7.693       7.256       6.912       6.675    
        6.492       6.313       6.104       5.849       5.584       5.399       5.264       5.127       4.941       4.684    
        4.292       3.734       3.026       2.360       1.820       1.316      0.8346      0.5146      0.2712       0.000    
  11    10.00       9.913       9.864       9.828       9.793       9.761       9.726       9.676       9.607       9.534    
        9.450       9.364       9.295       9.201       9.092       8.997       8.926       8.869       8.826       8.774    
        8.697       8.579       8.426       8.278       8.032       7.703       7.344       7.053       6.776       6.604    
        6.451       6.218       5.982       5.792       5.616       5.479       5.344       5.168       4.948       4.647    
        4.279       3.785       3.068       2.460       1.980       1.496      0.9615      0.5097      0.2046       0.000    
  12    10.00       9.921       9.872       9.834       9.805       9.771       9.733       9.666       9.584       9.509    
        9.429       9.344       9.252       9.138       9.048       8.967       8.892       8.844       8.789       8.710    
        8.560       8.360       8.146       7.924       7.621       7.368       7.178       6.880       6.651       6.515    
        6.351       6.136       5.947       5.787       5.672       5.548       5.388       5.188       4.925       4.609    
        4.246       3.762       3.105       2.561       2.126       1.603       1.011      0.4821      0.1603       0.000    
  13    10.00       9.938       9.893       9.852       9.815       9.776       9.720       9.638       9.552       9.479    
        9.395       9.309       9.213       9.095       8.992       8.911       8.858       8.796       8.719       8.537    
        8.263       8.019       7.788       7.510       7.273       7.158       6.925       6.655       6.536       6.422    
        6.247       6.060       5.924       5.813       5.718       5.605       5.420       5.172       4.913       4.586    
        4.224       3.732       3.053       2.544       2.141       1.568      0.9419      0.4360      0.1260       0.000    
  14    10.00       9.955       9.914       9.870       9.826       9.768       9.686       9.600       9.523       9.440    
        9.356       9.277       9.162       9.031       8.938       8.872       8.786       8.694       8.512       8.192    
        7.899       7.680       7.375       7.147       7.039       6.911       6.671       6.514       6.397       6.287    
        6.138       6.021       5.939       5.847       5.748       5.631       5.425       5.152       4.874       4.541    
        4.152       3.557       2.917       2.507       2.012       1.463      0.9291      0.3983      0.1025       0.000    
  15    10.00       9.964       9.924       9.880       9.828       9.741       9.641       9.565       9.489       9.408    
        9.345       9.253       9.102       8.959       8.874       8.760       8.645       8.526       8.221       7.844    
        7.601       7.292       7.012       6.925       6.858       6.691       6.498       6.344       6.260       6.179    
        6.088       6.020       5.955       5.878       5.773       5.629       5.391       5.081       4.789       4.481    
        4.060       3.480       2.926       2.373       1.775       1.284      0.7990      0.3511      0.1054       0.000    
  16    10.00       9.974       9.934       9.882       9.803       9.696       9.610       9.548       9.479       9.396    
        9.311       9.181       9.007       8.869       8.745       8.611       8.532       8.294       7.849       7.501    
        7.254       6.948       6.843       6.789       6.666       6.455       6.299       6.227       6.198       6.143    
        6.075       6.019       5.968       5.887       5.760       5.582       5.297       5.014       4.783       4.451    
        3.971       3.346       2.709       2.095       1.587       1.101      0.6809      0.3334      0.1124       0.000    
  17    10.00       9.974       9.932       9.864       9.766       9.659       9.587       9.530       9.454       9.362    
        9.222       9.055       8.899       8.748       8.594       8.465       8.270       7.871       7.454       7.210    
        6.967       6.778       6.695       6.574       6.381       6.224       6.182       6.172       6.154       6.105    
        6.053       6.010       5.963       5.888       5.710       5.465       5.218       5.018       4.797       4.379    
        3.737       3.100       2.492       1.890       1.358      0.8909      0.5708      0.2981      0.1225       0.000    
  18    10.00       9.968       9.919       9.838       9.716       9.630       9.573       9.497       9.410       9.281    
        9.112       8.964       8.805       8.603       8.401       8.186       7.900       7.493       7.179       6.965    
        6.766       6.606       6.480       6.308       6.176       6.134       6.123       6.119       6.095       6.058    
        6.027       5.993       5.939       5.814       5.628       5.418       5.209       5.029       4.720       4.162    
        3.505       2.827       2.178       1.684       1.260      0.8352      0.4903      0.2466      0.1182       0.000    
  19    10.00       9.961       9.907       9.789       9.668       9.617       9.554       9.460       9.353       9.215    
        9.060       8.920       8.692       8.385       8.144       7.921       7.574       7.201       6.988       6.823    
        6.617       6.423       6.284       6.151       6.086       6.071       6.065       6.047       6.018       6.004    
        5.988       5.959       5.881       5.759       5.600       5.397       5.206       4.947       4.419       3.839    
        3.309       2.607       1.991       1.599       1.178      0.7535      0.4427      0.2511      0.1286       0.000    
  20    10.00       9.952       9.862       9.742       9.653       9.599       9.531       9.430       9.311       9.185    
        9.026       8.813       8.472       8.166       7.950       7.673       7.327       7.122       6.927       6.697    
        6.470       6.296       6.151       6.057       6.010       5.986       5.957       5.950       5.935       5.939    
        5.935       5.909       5.828       5.712       5.549       5.371       5.133       4.661       4.089       3.625    
        3.050       2.404       1.943       1.564       1.139      0.6686      0.3865      0.2613      0.1346       0.000    
  21    10.00       9.921       9.825       9.724       9.637       9.580       9.507       9.389       9.271       9.152    
        8.940       8.614       8.265       8.032       7.790       7.498       7.240       7.045       6.810       6.566    
        6.348       6.178       6.050       5.952       5.886       5.837       5.821       5.830       5.833       5.848    
        5.862       5.830       5.747       5.636       5.471       5.275       4.902       4.404       3.949       3.385    
        2.840       2.330       1.941       1.557      0.9588      0.5411      0.3912      0.2951      0.1415       0.000    
  22    10.00       9.900       9.785       9.695       9.627       9.558       9.454       9.346       9.241       9.077    
        8.805       8.435       8.156       7.945       7.673       7.373       7.125       6.917       6.702       6.471    
        6.254       6.073       5.904       5.752       5.666       5.647       5.665       5.681       5.719       5.742    
        5.762       5.725       5.656       5.539       5.371       5.175       4.792       4.309       3.714       3.168    
        2.773       2.366       1.897       1.254      0.7474      0.5392      0.4099      0.2729      0.1009       0.000    
  23    10.00       9.871       9.759       9.688       9.616       9.514       9.400       9.319       9.186       8.981    
        8.661       8.344       8.143       7.880       7.526       7.227       7.031       6.862       6.660       6.411    
        6.182       5.971       5.729       5.444       5.236       5.280       5.416       5.506       5.586       5.640    
        5.659       5.635       5.569       5.460       5.301       5.078       4.691       4.093       3.496       3.111    
        2.746       2.233       1.561       1.010      0.7352      0.5497      0.3932      0.2320      9.2296E-02   0.000    
  24    10.00       9.851       9.770       9.685       9.582       9.475       9.388       9.297       9.169       8.897    
        8.596       8.362       8.135       7.784       7.395       7.179       7.014       6.847       6.618       6.384    
        6.180       5.913       5.524       4.984       4.325       4.597       5.002       5.284       5.450       5.536    
        5.574       5.556       5.502       5.381       5.205       4.926       4.436       3.869       3.421       3.019    
        2.572       2.000       1.400      0.9794      0.7364      0.5354      0.3586      0.2513      0.1233       0.000    
  25    10.00       9.868       9.785       9.678       9.570       9.472       9.385       9.302       9.110       8.844    
        8.612       8.376       8.078       7.693       7.404       7.211       7.024       6.824       6.615       6.413    
        6.179       5.924       5.369       4.340       2.507       3.876       4.619       5.062       5.334       5.473    
        5.518       5.505       5.441       5.276       5.036       4.658       4.197       3.752       3.367       2.896    
        2.357       1.811       1.305      0.9705      0.7632      0.5563      0.3778      0.2631      0.1638       0.000    
  26    10.00       9.885       9.805       9.692       9.577       9.487       9.395       9.271       9.081       8.896    
        8.679       8.355       7.990       7.678       7.461       7.273       7.056       6.810       6.607       6.439    
        6.245       5.993       5.514       4.760       3.923       4.280       4.732       5.063       5.315       5.462    
        5.493       5.467       5.364       5.168       4.902       4.542       4.033       3.611       3.252       2.681    
        2.073       1.594       1.292       1.060      0.8229      0.6006      0.4118      0.2858      0.1670       0.000    
  27    10.00       9.909       9.809       9.708       9.608       9.502       9.398       9.273       9.116       8.947    
        8.673       8.308       7.988       7.730       7.547       7.332       7.050       6.794       6.636       6.498    
        6.347       6.115       5.753       5.310       4.862       4.837       5.012       5.225       5.408       5.487    
        5.485       5.444       5.323       5.108       4.798       4.311       3.832       3.485       2.941       2.343    
        1.871       1.564       1.337       1.133      0.8996      0.6554      0.4473      0.3145      0.1984       0.000    
  28    10.00       9.915       9.833       9.741       9.643       9.530       9.416       9.295       9.158       8.961    
        8.640       8.321       8.043       7.791       7.597       7.386       7.156       6.911       6.689       6.546    
        6.426       6.261       6.029       5.710       5.438       5.281       5.319       5.452       5.512       5.526    
        5.493       5.425       5.275       5.003       4.593       4.089       3.678       3.192       2.627       2.203    
        1.868       1.608       1.385       1.173      0.9452      0.7152      0.5075      0.3581      0.2047       0.000    
  29    10.00       9.921       9.840       9.768       9.671       9.570       9.459       9.334       9.185       8.920    
        8.620       8.350       8.087       7.874       7.654       7.430       7.222       7.026       6.814       6.628    
        6.499       6.372       6.220       6.031       5.774       5.650       5.636       5.641       5.638       5.585    
        5.504       5.372       5.192       4.840       4.341       3.900       3.487       2.981       2.530       2.220    
        1.948       1.663       1.411       1.208       1.002      0.7563      0.5362      0.3742      0.2075       0.000    
  30    10.00       9.931       9.864       9.801       9.715       9.614       9.514       9.373       9.172       8.930    
        8.628       8.335       8.119       7.907       7.698       7.496       7.329       7.148       6.943       6.746    
        6.588       6.481       6.353       6.225       6.087       5.971       5.927       5.835       5.764       5.649    
        5.487       5.264       5.011       4.641       4.252       3.840       3.399       2.927       2.586       2.305    
        1.982       1.696       1.477       1.245       1.001      0.7826      0.5715      0.3974      0.2233       0.000    
  31    10.00       9.945       9.890       9.830       9.765       9.684       9.570       9.395       9.166       8.911    
        8.620       8.358       8.161       7.954       7.761       7.575       7.409       7.268       7.062       6.865    
        6.721       6.608       6.507       6.407       6.329       6.221       6.105       5.999       5.857       5.676    
        5.417       5.134       4.876       4.577       4.208       3.772       3.326       2.940       2.700       2.433    
        2.074       1.760       1.510       1.274       1.047      0.8232      0.6056      0.4182      0.2165       0.000    
  32    10.00       9.952       9.913       9.860       9.799       9.722       9.601       9.399       9.190       8.950    
        8.650       8.408       8.223       8.010       7.804       7.652       7.509       7.343       7.178       6.985    
        6.836       6.716       6.622       6.532       6.444       6.358       6.223       6.082       5.896       5.646    
        5.351       5.072       4.807       4.522       4.159       3.767       3.418       3.090       2.814       2.508    
        2.176       1.866       1.602       1.332       1.085      0.8951      0.6677      0.4102      0.1832       0.000    
  33    10.00       9.960       9.929       9.884       9.822       9.740       9.581       9.382       9.214       8.998    
        8.725       8.496       8.277       8.038       7.857       7.730       7.606       7.436       7.255       7.088    
        6.924       6.800       6.684       6.586       6.509       6.423       6.274       6.075       5.877       5.638    
        5.343       5.093       4.817       4.468       4.129       3.782       3.499       3.240       2.927       2.589    
        2.303       2.009       1.720       1.441       1.181      0.9690      0.7142      0.4122      0.1792       0.000    
  34    10.00       9.967       9.943       9.905       9.824       9.703       9.556       9.419       9.244       9.032    
        8.799       8.550       8.304       8.070       7.923       7.820       7.686       7.523       7.319       7.157    
        7.008       6.854       6.728       6.632       6.555       6.441       6.264       6.075       5.864       5.586    
        5.325       5.124       4.851       4.514       4.179       3.860       3.592       3.335       3.012       2.706    
        2.451       2.168       1.853       1.574       1.311       1.068      0.7637      0.4637      0.2431       0.000    
  35    10.00       9.972       9.943       9.888       9.788       9.670       9.565       9.446       9.306       9.076    
        8.821       8.572       8.324       8.132       8.002       7.893       7.750       7.578       7.379       7.187    
        7.031       6.885       6.758       6.666       6.580       6.465       6.272       6.048       5.799       5.508    
        5.312       5.101       4.826       4.578       4.299       3.964       3.669       3.453       3.149       2.824    
        2.577       2.288       1.972       1.698       1.424       1.158      0.8753      0.5801      0.2870       0.000    
  36    10.00       9.966       9.919       9.860       9.766       9.657       9.569       9.467       9.315       9.093    
        8.815       8.551       8.375       8.230       8.102       7.962       7.794       7.619       7.407       7.153    
        6.982       6.871       6.761       6.684       6.597       6.451       6.234       5.987       5.682       5.421    
        5.254       5.082       4.845       4.608       4.375       4.076       3.783       3.554       3.283       2.928    
        2.658       2.335       2.020       1.811       1.544       1.248      0.9655      0.6570      0.3215       0.000    
  37    10.00       9.947       9.898       9.838       9.747       9.651       9.552       9.454       9.314       9.056    
        8.766       8.565       8.462       8.323       8.163       8.024       7.816       7.598       7.327       7.069    
        6.956       6.863       6.756       6.671       6.570       6.390       6.169       5.845       5.567       5.396    
        5.252       5.068       4.836       4.650       4.412       4.131       3.902       3.682       3.377       2.988    
        2.633       2.331       2.111       1.894       1.628       1.347       1.064      0.7246      0.3979       0.000    
  38    10.00       9.940       9.876       9.814       9.734       9.643       9.537       9.431       9.270       9.028    
        8.812       8.653       8.521       8.395       8.222       7.995       7.760       7.506       7.204       7.032    
        6.941       6.818       6.708       6.637       6.521       6.319       5.994       5.690       5.545       5.415    
        5.264       5.070       4.861       4.676       4.444       4.188       4.001       3.777       3.389       2.960    
        2.652       2.400       2.182       1.958       1.722       1.437       1.155      0.8380      0.4141       0.000    
  39    10.00       9.923       9.861       9.804       9.727       9.624       9.512       9.402       9.251       9.053    
        8.884       8.762       8.614       8.440       8.189       7.903       7.639       7.342       7.128       7.017    
        6.880       6.737       6.654       6.585       6.471       6.202       5.876       5.694       5.562       5.429    
        5.257       5.075       4.873       4.688       4.513       4.304       4.057       3.787       3.404       3.005    
        2.680       2.419       2.248       2.060       1.794       1.512       1.226      0.8722      0.4087       0.000    
  40    10.00       9.915       9.855       9.797       9.718       9.611       9.502       9.393       9.259       9.094    
        8.955       8.847       8.665       8.392       8.076       7.790       7.509       7.256       7.100       6.961    
        6.802       6.678       6.608       6.521       6.368       6.128       5.909       5.728       5.581       5.442    
        5.275       5.079       4.889       4.735       4.581       4.369       4.085       3.802       3.413       2.985    
        2.681       2.475       2.286       2.126       1.846       1.537       1.275      0.8747      0.4072       0.000    
  41    10.00       9.922       9.853       9.783       9.698       9.614       9.522       9.421       9.288       9.138    
        9.005       8.874       8.637       8.312       7.986       7.719       7.444       7.203       7.050       6.899    
        6.739       6.631       6.552       6.449       6.291       6.112       5.965       5.790       5.605       5.443    
        5.283       5.106       4.925       4.791       4.628       4.416       4.132       3.741       3.295       2.966    
        2.745       2.546       2.350       2.127       1.836       1.540       1.316      0.9319      0.4225       0.000    
  42    10.00       9.922       9.843       9.782       9.719       9.641       9.544       9.429       9.316       9.200    
        9.029       8.803       8.528       8.217       7.915       7.671       7.402       7.168       7.003       6.833    
        6.684       6.588       6.501       6.407       6.265       6.140       6.016       5.818       5.611       5.465    
        5.335       5.142       4.948       4.818       4.667       4.441       4.092       3.631       3.223       2.978    
        2.811       2.633       2.384       2.087       1.808       1.577       1.344      0.9829      0.4849       0.000    
  43    10.00       9.915       9.849       9.796       9.746       9.671       9.575       9.466       9.339       9.160    
        8.938       8.705       8.447       8.124       7.853       7.628       7.386       7.150       6.942       6.782    
        6.649       6.553       6.479       6.402       6.282       6.153       6.027       5.822       5.642       5.535    
        5.375       5.167       4.981       4.847       4.670       4.378       3.975       3.538       3.241       3.053    
        2.876       2.671       2.365       2.060       1.814       1.591       1.390      0.9968      0.4555       0.000    
  44    10.00       9.915       9.857       9.810       9.749       9.693       9.614       9.467       9.279       9.071    
        8.885       8.649       8.338       8.068       7.851       7.593       7.329       7.078       6.872       6.733    
        6.635       6.553       6.479       6.399       6.295       6.164       5.994       5.824       5.703       5.575    
        5.432       5.251       5.037       4.833       4.618       4.291       3.868       3.509       3.279       3.097    
        2.918       2.675       2.380       2.116       1.853       1.613       1.368      0.8999      0.4138       0.000    
  45    10.00       9.924       9.870       9.809       9.750       9.701       9.571       9.397       9.206       9.028    
        8.874       8.559       8.236       8.039       7.806       7.519       7.232       7.001       6.834       6.724    
        6.649       6.572       6.490       6.397       6.282       6.153       6.009       5.879       5.772       5.639    
        5.474       5.286       5.066       4.809       4.551       4.200       3.803       3.520       3.345       3.158    
        2.920       2.641       2.388       2.148       1.914       1.676       1.278      0.7997      0.4025       0.000    
  46    10.00       9.939       9.881       9.809       9.742       9.644       9.503       9.371       9.211       9.020    
        8.765       8.465       8.206       7.957       7.708       7.430       7.164       6.993       6.856       6.750    
        6.675       6.600       6.497       6.380       6.269       6.160       6.047       5.928       5.820       5.703    
        5.554       5.355       5.105       4.800       4.433       4.068       3.774       3.574       3.392       3.196    
        2.915       2.619       2.367       2.176       1.953       1.642       1.189      0.7638      0.3766       0.000    
  47    10.00       9.950       9.895       9.824       9.708       9.580       9.459       9.356       9.209       8.956    
        8.651       8.376       8.151       7.942       7.679       7.376       7.141       6.979       6.870       6.781    
        6.700       6.612       6.503       6.381       6.272       6.187       6.093       5.975       5.852       5.737    
        5.607       5.441       5.108       4.681       4.323       4.060       3.814       3.642       3.480       3.210    
        2.867       2.553       2.325       2.194       1.947       1.566       1.125      0.7368      0.3722       0.000    
  48    10.00       9.955       9.899       9.792       9.674       9.563       9.441       9.336       9.188       8.903    
        8.570       8.340       8.155       7.900       7.592       7.320       7.143       6.980       6.871       6.802    
        6.719       6.614       6.497       6.384       6.295       6.227       6.144       6.013       5.870       5.746    
        5.610       5.410       5.064       4.709       4.389       4.100       3.880       3.704       3.497       3.154    
        2.785       2.543       2.362       2.129       1.805       1.468       1.089      0.7421      0.3929       0.000    
  49    10.00       9.953       9.867       9.764       9.675       9.556       9.438       9.327       9.140       8.838    
        8.540       8.320       8.089       7.831       7.599       7.345       7.099       6.948       6.881       6.817    
        6.738       6.617       6.481       6.384       6.316       6.265       6.169       6.018       5.868       5.755    
        5.608       5.345       5.040       4.789       4.521       4.201       3.918       3.700       3.456       3.089    
        2.791       2.579       2.329       1.993       1.706       1.402       1.071      0.7543      0.3841       0.000    
  50    10.00       9.940       9.846       9.752       9.680       9.570       9.438       9.297       9.095       8.856    
        8.555       8.260       8.019       7.814       7.627       7.343       7.062       6.948       6.889       6.827    
        6.752       6.615       6.470       6.381       6.327       6.281       6.174       6.012       5.868       5.753    
        5.592       5.316       5.081       4.866       4.576       4.258       3.970       3.681       3.331       3.005    
        2.848       2.625       2.259       1.922       1.681       1.391       1.104      0.7367      0.3026       0.000    

 HEAD WILL BE SAVED ON UNIT   51 AT END OF TIME STEP  46, STRESS PERIOD    2

 DRAWDOWN WILL BE SAVED ON UNIT   52 AT END OF TIME STEP  46, STRESS PERIOD    2
1
  VOLUMETRIC BUDGET FOR ENTIRE MODEL AT END OF TIME STEP 46 IN STRESS PERIOD   2
  ------------------------------------------------------------------------------

     CUMULATIVE VOLUMES      L**3       RATES FOR THIS TIME STEP      L**3/T
     ------------------                 ------------------------

           IN:                                      IN:
           ---                                      ---
             STORAGE =       22591.4082               STORAGE =         467.0730
       CONSTANT HEAD =       25775.4082         CONSTANT HEAD =         571.8657
               WELLS =           0.0000                 WELLS =           0.0000

            TOTAL IN =       48366.8164              TOTAL IN =        1038.9387

          OUT:                                     OUT:
          ----                                     ----
             STORAGE =       9.3745E-03               STORAGE =           0.0000
       CONSTANT HEAD =       25366.7988         CONSTANT HEAD =         538.9385
               WELLS =       23000.0000                 WELLS =         500.0000

           TOTAL OUT =       48366.8086             TOTAL OUT =        1038.9385

            IN - OUT =       7.8125E-03              IN - OUT =       2.4414E-04

 PERCENT DISCREPANCY =           0.00     PERCENT DISCREPANCY =           0.00






          TIME SUMMARY AT END OF TIME STEP  46 IN STRESS PERIOD    2
                    SECONDS     MINUTES      HOURS       DAYS        YEARS
                    -----------------------------------------------------------
   TIME STEP LENGTH  86400.      1440.0      24.000      1.0000     2.73785E-03
 STRESS PERIOD TIME 3.97440E+06  66240.      1104.0      46.000     0.12594    
         TOTAL TIME 4.06080E+06  67680.      1128.0      47.000     0.12868    
1
 
 SOLVING FOR HEAD 

 OUTPUT CONTROL FOR STRESS PERIOD    2   TIME STEP  47
    SAVE HEAD FOR ALL LAYERS
    SAVE DRAWDOWN FOR ALL LAYERS
    SAVE BUDGET
    PRINT HEAD FOR ALL LAYERS
    PRINT BUDGET
 UBDSV1 SAVING "         STORAGE" ON UNIT  53 AT TIME STEP 47, STRESS PERIOD   2
 UBDSV2 SAVING "   CONSTANT HEAD" ON UNIT  53 AT TIME STEP 47, STRESS PERIOD   2
 UBDSV1 SAVING "FLOW RIGHT FACE " ON UNIT  53 AT TIME STEP 47, STRESS PERIOD   2
 UBDSV1 SAVING "FLOW FRONT FACE " ON UNIT  53 AT TIME STEP 47, STRESS PERIOD   2
1
              HEAD IN LAYER   1 AT END OF TIME STEP  47 IN STRESS PERIOD    2
  ---------------------------------------------------------------------------

            1           2           3           4           5           6           7           8           9          10
           11          12          13          14          15          16          17          18          19          20
           21          22          23          24          25          26          27          28          29          30
           31          32          33          34          35          36          37          38          39          40
           41          42          43          44          45          46          47          48          49          50
 ........................................................................................................................
   1    10.00       9.957       9.898       9.840       9.792       9.732       9.674       9.613       9.531       9.464    
        9.424       9.384       9.340       9.296       9.225       9.148       9.064       8.998       8.968       8.935    
        8.894       8.859       8.823       8.778       8.715       8.604       8.472       8.343       8.194       8.046    
        7.836       7.502       7.108       6.694       6.229       5.799       5.435       5.096       4.634       4.132    
        3.704       3.282       2.699       2.146       1.758       1.371       1.045      0.8350      0.5537       0.000    
   2    10.00       9.957       9.904       9.846       9.794       9.739       9.674       9.594       9.515       9.464    
        9.428       9.392       9.358       9.304       9.222       9.142       9.065       9.001       8.968       8.931    
        8.889       8.863       8.834       8.786       8.713       8.608       8.475       8.340       8.201       8.053    
        7.826       7.481       7.067       6.599       6.129       5.715       5.389       5.057       4.589       4.118    
        3.686       3.178       2.651       2.214       1.829       1.468       1.096      0.7930      0.4234       0.000    
   3    10.00       9.953       9.902       9.849       9.796       9.733       9.653       9.576       9.526       9.479    
        9.438       9.406       9.373       9.322       9.241       9.141       9.059       9.006       8.966       8.928    
        8.894       8.865       8.836       8.776       8.698       8.592       8.465       8.364       8.216       8.042    
        7.749       7.349       6.908       6.453       6.021       5.636       5.344       5.003       4.496       4.037    
        3.678       3.215       2.730       2.310       1.910       1.545       1.106      0.6804      0.2992       0.000    
   4    10.00       9.956       9.905       9.847       9.782       9.709       9.632       9.575       9.533       9.488    
        9.452       9.426       9.389       9.333       9.259       9.150       9.059       9.010       8.966       8.931    
        8.892       8.858       8.821       8.757       8.678       8.575       8.452       8.338       8.224       8.005    
        7.627       7.138       6.667       6.319       5.996       5.623       5.249       4.815       4.387       4.052    
        3.733       3.323       2.838       2.423       2.004       1.561       1.055      0.6042      0.2814       0.000    
   5    10.00       9.953       9.899       9.832       9.765       9.698       9.630       9.582       9.538       9.499    
        9.468       9.440       9.397       9.332       9.245       9.146       9.069       9.014       8.970       8.921    
        8.875       8.840       8.794       8.729       8.654       8.537       8.414       8.316       8.202       7.922    
        7.427       6.890       6.501       6.237       5.945       5.567       5.141       4.714       4.410       4.127    
        3.838       3.415       2.909       2.546       2.120       1.542      0.9602      0.5576      0.2805       0.000    
   6    10.00       9.942       9.878       9.825       9.762       9.692       9.635       9.592       9.546       9.511    
        9.482       9.448       9.392       9.316       9.242       9.160       9.076       9.009       8.952       8.895    
        8.855       8.818       8.775       8.706       8.597       8.484       8.393       8.286       8.094       7.693    
        7.142       6.657       6.360       6.161       5.926       5.511       5.049       4.709       4.486       4.238    
        3.958       3.575       3.073       2.622       2.094       1.475      0.8610      0.4904      0.2740       0.000    
   7    10.00       9.925       9.865       9.814       9.754       9.703       9.649       9.604       9.565       9.528    
        9.490       9.441       9.373       9.300       9.233       9.165       9.072       8.981       8.920       8.874    
        8.834       8.794       8.750       8.657       8.545       8.455       8.354       8.184       7.861       7.351    
        6.830       6.452       6.268       6.114       5.815       5.405       5.101       4.805       4.563       4.391    
        4.107       3.712       3.174       2.590       1.940       1.229      0.7216      0.4979      0.2522       0.000    
   8    10.00       9.921       9.865       9.810       9.756       9.711       9.665       9.622       9.584       9.548    
        9.493       9.422       9.351       9.286       9.223       9.139       9.029       8.944       8.897       8.853    
        8.806       8.772       8.700       8.601       8.501       8.395       8.206       7.937       7.495       7.055    
        6.667       6.368       6.229       6.041       5.704       5.389       5.136       4.919       4.725       4.522    
        4.228       3.740       3.119       2.453       1.713       1.109      0.7637      0.4884      0.2250       0.000    
   9    10.00       9.924       9.862       9.808       9.769       9.731       9.686       9.643       9.601       9.560    
        9.490       9.403       9.329       9.264       9.188       9.094       8.995       8.919       8.870       8.824    
        8.782       8.726       8.626       8.535       8.432       8.284       8.011       7.606       7.170       6.855    
        6.549       6.331       6.175       5.925       5.615       5.371       5.192       5.026       4.860       4.639    
        4.275       3.767       3.106       2.362       1.680       1.148      0.7791      0.4845      0.2402       0.000    
  10    10.00       9.923       9.859       9.815       9.781       9.744       9.705       9.667       9.618       9.552    
        9.468       9.380       9.309       9.237       9.157       9.049       8.949       8.888       8.845       8.798    
        8.755       8.663       8.556       8.455       8.313       8.091       7.685       7.247       6.904       6.666    
        6.483       6.305       6.096       5.841       5.577       5.393       5.258       5.121       4.936       4.679    
        4.288       3.731       3.024       2.359       1.819       1.315      0.8343      0.5144      0.2711       0.000    
  11    10.00       9.913       9.864       9.827       9.792       9.760       9.725       9.675       9.605       9.532    
        9.448       9.362       9.293       9.198       9.088       8.994       8.922       8.864       8.822       8.770    
        8.692       8.574       8.421       8.271       8.025       7.694       7.335       7.043       6.766       6.595    
        6.441       6.209       5.973       5.784       5.608       5.472       5.337       5.162       4.942       4.642    
        4.275       3.782       3.066       2.458       1.979       1.495      0.9612      0.5096      0.2046       0.000    
  12    10.00       9.921       9.872       9.833       9.804       9.771       9.732       9.665       9.582       9.507    
        9.427       9.341       9.249       9.134       9.044       8.962       8.887       8.839       8.784       8.705    
        8.554       8.353       8.139       7.916       7.611       7.358       7.167       6.869       6.641       6.504    
        6.341       6.126       5.938       5.778       5.663       5.540       5.380       5.182       4.919       4.604    
        4.242       3.759       3.103       2.560       2.125       1.602       1.011      0.4820      0.1603       0.000    
  13    10.00       9.938       9.893       9.851       9.814       9.776       9.719       9.636       9.551       9.476    
        9.392       9.306       9.209       9.091       8.988       8.906       8.853       8.791       8.714       8.531    
        8.255       8.011       7.778       7.499       7.261       7.146       6.913       6.642       6.524       6.410    
        6.236       6.049       5.914       5.803       5.709       5.596       5.413       5.165       4.907       4.581    
        4.220       3.729       3.051       2.543       2.140       1.568      0.9416      0.4359      0.1259       0.000    
  14    10.00       9.955       9.914       9.870       9.825       9.767       9.685       9.598       9.521       9.437    
        9.353       9.274       9.158       9.027       8.933       8.867       8.780       8.688       8.505       8.183    
        7.889       7.669       7.363       7.135       7.026       6.898       6.657       6.500       6.384       6.274    
        6.126       6.009       5.928       5.837       5.738       5.622       5.416       5.144       4.868       4.536    
        4.148       3.555       2.915       2.505       2.012       1.462      0.9288      0.3982      0.1025       0.000    
  15    10.00       9.964       9.923       9.879       9.828       9.740       9.640       9.563       9.487       9.406    
        9.342       9.250       9.098       8.954       8.868       8.754       8.638       8.519       8.212       7.834    
        7.589       7.278       6.998       6.911       6.844       6.676       6.483       6.330       6.245       6.165    
        6.074       6.007       5.943       5.867       5.763       5.620       5.383       5.074       4.783       4.476    
        4.055       3.477       2.924       2.372       1.775       1.283      0.7988      0.3510      0.1053       0.000    
  16    10.00       9.974       9.934       9.881       9.802       9.694       9.608       9.546       9.477       9.393    
        9.308       9.176       9.002       8.863       8.739       8.604       8.524       8.285       7.838       7.488    
        7.240       6.933       6.828       6.774       6.651       6.440       6.284       6.211       6.183       6.128    
        6.061       6.006       5.956       5.875       5.749       5.572       5.288       5.007       4.776       4.445    
        3.967       3.343       2.707       2.094       1.587       1.101      0.6807      0.3333      0.1124       0.000    
  17    10.00       9.974       9.932       9.863       9.765       9.658       9.585       9.528       9.451       9.358    
        9.217       9.050       8.892       8.741       8.586       8.456       8.260       7.859       7.440       7.196    
        6.952       6.762       6.679       6.559       6.365       6.207       6.166       6.156       6.139       6.090    
        6.038       5.996       5.950       5.876       5.698       5.455       5.209       5.010       4.790       4.374    
        3.734       3.097       2.491       1.889       1.357      0.8906      0.5706      0.2980      0.1224       0.000    
  18    10.00       9.968       9.919       9.837       9.715       9.628       9.571       9.494       9.406       9.277    
        9.107       8.957       8.798       8.595       8.392       8.175       7.888       7.479       7.164       6.950    
        6.750       6.590       6.463       6.291       6.159       6.117       6.107       6.103       6.079       6.043    
        6.012       5.979       5.925       5.801       5.616       5.408       5.200       5.021       4.713       4.157    
        3.502       2.825       2.177       1.683       1.259      0.8349      0.4901      0.2465      0.1181       0.000    
  19    10.00       9.960       9.907       9.788       9.666       9.615       9.552       9.457       9.349       9.210    
        9.054       8.914       8.684       8.375       8.133       7.909       7.560       7.186       6.972       6.806    
        6.600       6.406       6.267       6.134       6.069       6.054       6.049       6.030       6.001       5.988    
        5.972       5.944       5.867       5.745       5.588       5.386       5.196       4.939       4.413       3.835    
        3.306       2.606       1.990       1.598       1.177      0.7533      0.4425      0.2510      0.1286       0.000    
  20    10.00       9.952       9.862       9.740       9.651       9.597       9.528       9.427       9.307       9.180    
        9.020       8.806       8.462       8.154       7.938       7.660       7.312       7.107       6.911       6.680    
        6.453       6.279       6.134       6.040       5.993       5.969       5.940       5.933       5.918       5.922    
        5.919       5.894       5.814       5.698       5.537       5.360       5.124       4.654       4.084       3.621    
        3.048       2.403       1.942       1.563       1.138      0.6684      0.3864      0.2612      0.1346       0.000    
  21    10.00       9.920       9.824       9.723       9.635       9.578       9.504       9.386       9.266       9.147    
        8.933       8.605       8.254       8.020       7.777       7.483       7.224       7.029       6.793       6.549    
        6.330       6.160       6.033       5.934       5.868       5.819       5.803       5.812       5.815       5.830    
        5.845       5.813       5.732       5.622       5.458       5.264       4.893       4.397       3.944       3.382    
        2.838       2.329       1.940       1.556      0.9585      0.5409      0.3911      0.2950      0.1415       0.000    
  22    10.00       9.899       9.784       9.694       9.625       9.555       9.451       9.342       9.236       9.071    
        8.797       8.425       8.144       7.933       7.659       7.358       7.109       6.901       6.685       6.453    
        6.236       6.056       5.886       5.734       5.648       5.629       5.647       5.663       5.701       5.725    
        5.744       5.708       5.640       5.525       5.358       5.164       4.783       4.302       3.710       3.166    
        2.771       2.365       1.896       1.254      0.7471      0.5391      0.4098      0.2728      0.1009       0.000    
  23    10.00       9.870       9.758       9.687       9.614       9.511       9.397       9.315       9.181       8.974    
        8.652       8.333       8.131       7.867       7.512       7.211       7.014       6.845       6.643       6.393    
        6.165       5.954       5.711       5.425       5.218       5.262       5.398       5.488       5.568       5.622    
        5.641       5.618       5.553       5.446       5.288       5.067       4.682       4.087       3.493       3.108    
        2.745       2.232       1.560       1.010      0.7350      0.5496      0.3931      0.2319      9.2279E-02   0.000    
  24    10.00       9.850       9.769       9.683       9.580       9.472       9.384       9.293       9.164       8.889    
        8.587       8.351       8.123       7.771       7.380       7.163       6.997       6.831       6.601       6.366    
        6.163       5.895       5.506       4.966       4.306       4.578       4.983       5.265       5.432       5.517    
        5.556       5.539       5.485       5.367       5.192       4.915       4.428       3.864       3.418       3.017    
        2.571       1.999       1.400      0.9792      0.7362      0.5353      0.3586      0.2512      0.1233       0.000    
  25    10.00       9.867       9.784       9.676       9.568       9.469       9.381       9.297       9.104       8.837    
        8.603       8.365       8.066       7.679       7.389       7.195       7.008       6.808       6.598       6.396    
        6.162       5.906       5.350       4.321       2.487       3.856       4.600       5.042       5.315       5.454    
        5.500       5.488       5.424       5.262       5.024       4.649       4.190       3.747       3.364       2.894    
        2.356       1.810       1.305      0.9703      0.7630      0.5562      0.3778      0.2631      0.1637       0.000    
  26    10.00       9.885       9.804       9.690       9.574       9.484       9.391       9.266       9.075       8.889    
        8.671       8.345       7.978       7.665       7.446       7.257       7.040       6.794       6.590       6.422    
        6.227       5.975       5.496       4.741       3.903       4.261       4.712       5.043       5.295       5.443    
        5.475       5.450       5.348       5.154       4.891       4.533       4.026       3.607       3.248       2.679    
        2.072       1.593       1.292       1.059      0.8227      0.6004      0.4118      0.2858      0.1670       0.000    
  27    10.00       9.908       9.808       9.706       9.606       9.499       9.395       9.269       9.111       8.941    
        8.665       8.298       7.976       7.717       7.533       7.317       7.034       6.778       6.619       6.481    
        6.329       6.097       5.735       5.291       4.843       4.817       4.992       5.205       5.389       5.469    
        5.468       5.427       5.307       5.095       4.787       4.303       3.827       3.481       2.939       2.342    
        1.871       1.564       1.337       1.133      0.8994      0.6553      0.4472      0.3145      0.1984       0.000    
  28    10.00       9.914       9.832       9.739       9.640       9.527       9.412       9.291       9.153       8.954    
        8.631       8.311       8.032       7.778       7.584       7.372       7.141       6.895       6.672       6.530    
        6.409       6.244       6.011       5.691       5.419       5.262       5.300       5.433       5.493       5.507    
        5.475       5.408       5.260       4.991       4.583       4.082       3.674       3.189       2.625       2.202    
        1.867       1.607       1.385       1.172      0.9450      0.7150      0.5074      0.3581      0.2046       0.000    
  29    10.00       9.920       9.840       9.766       9.670       9.568       9.455       9.330       9.180       8.913    
        8.612       8.341       8.075       7.862       7.641       7.416       7.207       7.011       6.798       6.611    
        6.482       6.355       6.202       6.013       5.756       5.631       5.617       5.622       5.620       5.567    
        5.487       5.357       5.179       4.830       4.334       3.895       3.483       2.979       2.529       2.220    
        1.947       1.663       1.411       1.207       1.002      0.7562      0.5361      0.3741      0.2075       0.000    
  30    10.00       9.931       9.864       9.800       9.713       9.612       9.511       9.369       9.167       8.924    
        8.620       8.326       8.109       7.895       7.686       7.483       7.315       7.134       6.927       6.730    
        6.571       6.465       6.335       6.208       6.069       5.953       5.909       5.817       5.746       5.632    
        5.472       5.252       5.001       4.633       4.247       3.836       3.397       2.925       2.585       2.304    
        1.982       1.696       1.477       1.245       1.000      0.7825      0.5714      0.3973      0.2233       0.000    
  31    10.00       9.945       9.890       9.829       9.764       9.682       9.568       9.392       9.161       8.905    
        8.612       8.349       8.151       7.943       7.749       7.562       7.396       7.254       7.048       6.850    
        6.706       6.592       6.491       6.390       6.313       6.204       6.088       5.982       5.841       5.662    
        5.405       5.124       4.868       4.571       4.203       3.769       3.324       2.939       2.699       2.432    
        2.073       1.759       1.509       1.274       1.047      0.8231      0.6055      0.4181      0.2165       0.000    
  32    10.00       9.952       9.913       9.860       9.798       9.721       9.599       9.396       9.186       8.944    
        8.643       8.400       8.213       7.999       7.793       7.640       7.496       7.329       7.164       6.970    
        6.821       6.701       6.607       6.517       6.429       6.343       6.207       6.067       5.883       5.634    
        5.341       5.064       4.801       4.517       4.155       3.764       3.416       3.088       2.813       2.507    
        2.175       1.865       1.602       1.332       1.085      0.8950      0.6676      0.4102      0.1832       0.000    
  33    10.00       9.960       9.928       9.883       9.821       9.738       9.579       9.379       9.210       8.993    
        8.718       8.488       8.268       8.028       7.846       7.719       7.594       7.424       7.242       7.075    
        6.909       6.786       6.670       6.571       6.495       6.409       6.260       6.063       5.865       5.628    
        5.335       5.087       4.812       4.464       4.126       3.780       3.498       3.239       2.926       2.589    
        2.302       2.009       1.720       1.440       1.181      0.9689      0.7141      0.4121      0.1791       0.000    
  34    10.00       9.966       9.943       9.904       9.823       9.701       9.554       9.416       9.241       9.027    
        8.793       8.542       8.296       8.061       7.913       7.809       7.675       7.512       7.307       7.145    
        6.996       6.841       6.716       6.619       6.542       6.429       6.253       6.065       5.855       5.578    
        5.319       5.118       4.847       4.510       4.176       3.858       3.591       3.334       3.011       2.706    
        2.450       2.168       1.853       1.574       1.311       1.068      0.7637      0.4636      0.2431       0.000    
  35    10.00       9.972       9.943       9.888       9.787       9.669       9.564       9.444       9.303       9.072    
        8.816       8.565       8.316       8.124       7.993       7.883       7.740       7.567       7.368       7.176    
        7.020       6.874       6.747       6.655       6.569       6.454       6.262       6.038       5.791       5.503    
        5.308       5.097       4.823       4.576       4.297       3.963       3.668       3.453       3.149       2.824    
        2.577       2.288       1.972       1.698       1.424       1.158      0.8753      0.5801      0.2870       0.000    
  36    10.00       9.966       9.919       9.859       9.765       9.656       9.568       9.465       9.312       9.089    
        8.810       8.545       8.368       8.222       8.094       7.954       7.784       7.609       7.397       7.144    
        6.973       6.862       6.752       6.674       6.588       6.442       6.226       5.980       5.677       5.417    
        5.251       5.079       4.843       4.606       4.373       4.075       3.782       3.554       3.282       2.928    
        2.657       2.335       2.019       1.811       1.544       1.248      0.9655      0.6570      0.3214       0.000    
  37    10.00       9.947       9.897       9.838       9.746       9.650       9.550       9.452       9.312       9.053    
        8.762       8.559       8.456       8.316       8.155       8.016       7.807       7.589       7.319       7.061    
        6.948       6.855       6.748       6.663       6.562       6.383       6.163       5.840       5.563       5.394    
        5.249       5.066       4.835       4.648       4.411       4.130       3.901       3.681       3.377       2.987    
        2.633       2.330       2.111       1.894       1.628       1.347       1.064      0.7246      0.3979       0.000    
  38    10.00       9.940       9.876       9.813       9.733       9.642       9.536       9.429       9.268       9.025    
        8.808       8.648       8.516       8.389       8.215       7.988       7.753       7.499       7.197       7.025    
        6.934       6.811       6.702       6.631       6.514       6.313       5.990       5.687       5.542       5.413    
        5.262       5.068       4.859       4.675       4.443       4.187       4.000       3.777       3.388       2.959    
        2.652       2.400       2.182       1.958       1.722       1.437       1.155      0.8380      0.4141       0.000    
  39    10.00       9.923       9.860       9.804       9.727       9.623       9.510       9.400       9.249       9.050    
        8.880       8.758       8.610       8.435       8.183       7.898       7.633       7.337       7.123       7.012    
        6.874       6.732       6.648       6.580       6.466       6.198       5.873       5.692       5.560       5.426    
        5.256       5.073       4.872       4.687       4.512       4.303       4.057       3.786       3.403       3.004    
        2.679       2.419       2.248       2.060       1.794       1.512       1.226      0.8722      0.4087       0.000    
  40    10.00       9.915       9.854       9.797       9.717       9.610       9.501       9.392       9.257       9.092    
        8.952       8.844       8.661       8.388       8.072       7.785       7.505       7.251       7.096       6.957    
        6.798       6.674       6.604       6.517       6.365       6.125       5.907       5.726       5.579       5.440    
        5.273       5.077       4.888       4.734       4.580       4.368       4.084       3.802       3.413       2.985    
        2.681       2.475       2.286       2.125       1.846       1.537       1.275      0.8747      0.4072       0.000    
  41    10.00       9.922       9.852       9.783       9.697       9.613       9.521       9.420       9.287       9.136    
        9.003       8.871       8.634       8.309       7.983       7.716       7.441       7.199       7.046       6.895    
        6.736       6.628       6.549       6.446       6.289       6.110       5.963       5.788       5.604       5.441    
        5.282       5.105       4.924       4.790       4.627       4.416       4.131       3.741       3.295       2.965    
        2.745       2.545       2.350       2.127       1.836       1.540       1.316      0.9319      0.4225       0.000    
  42    10.00       9.922       9.843       9.782       9.719       9.641       9.543       9.428       9.314       9.198    
        9.027       8.801       8.525       8.215       7.912       7.668       7.400       7.165       7.000       6.830    
        6.681       6.585       6.498       6.405       6.263       6.139       6.014       5.816       5.610       5.464    
        5.333       5.140       4.947       4.817       4.666       4.441       4.092       3.631       3.223       2.977    
        2.811       2.633       2.384       2.087       1.808       1.577       1.344      0.9828      0.4849       0.000    
  43    10.00       9.915       9.848       9.796       9.746       9.671       9.574       9.465       9.338       9.158    
        8.937       8.703       8.446       8.122       7.851       7.625       7.384       7.147       6.939       6.780    
        6.646       6.550       6.477       6.400       6.280       6.151       6.025       5.820       5.640       5.533    
        5.374       5.166       4.980       4.846       4.669       4.378       3.974       3.538       3.240       3.052    
        2.875       2.670       2.365       2.060       1.814       1.591       1.390      0.9967      0.4555       0.000    
  44    10.00       9.914       9.857       9.809       9.749       9.693       9.613       9.467       9.278       9.070    
        8.884       8.648       8.337       8.066       7.850       7.591       7.327       7.076       6.870       6.731    
        6.633       6.551       6.477       6.397       6.294       6.162       5.993       5.823       5.702       5.574    
        5.431       5.250       5.036       4.832       4.617       4.291       3.868       3.509       3.278       3.097    
        2.918       2.675       2.380       2.116       1.853       1.613       1.368      0.8998      0.4138       0.000    
  45    10.00       9.924       9.870       9.808       9.750       9.700       9.570       9.396       9.206       9.027    
        8.873       8.558       8.234       8.038       7.805       7.517       7.230       6.999       6.832       6.722    
        6.647       6.570       6.488       6.395       6.280       6.151       6.008       5.877       5.771       5.638    
        5.473       5.285       5.065       4.808       4.550       4.199       3.802       3.519       3.345       3.157    
        2.919       2.641       2.388       2.148       1.914       1.675       1.277      0.7997      0.4024       0.000    
  46    10.00       9.939       9.881       9.809       9.741       9.644       9.502       9.370       9.210       9.019    
        8.764       8.464       8.205       7.955       7.707       7.429       7.162       6.991       6.855       6.749    
        6.674       6.599       6.495       6.378       6.267       6.159       6.046       5.926       5.819       5.702    
        5.552       5.354       5.104       4.800       4.432       4.067       3.774       3.574       3.391       3.196    
        2.915       2.618       2.366       2.176       1.953       1.642       1.189      0.7638      0.3765       0.000    
  47    10.00       9.950       9.895       9.823       9.708       9.580       9.459       9.355       9.208       8.956    
        8.650       8.375       8.150       7.941       7.677       7.375       7.140       6.978       6.868       6.780    
        6.699       6.610       6.502       6.379       6.271       6.186       6.092       5.974       5.850       5.735    
        5.605       5.439       5.108       4.680       4.322       4.060       3.814       3.642       3.480       3.210    
        2.867       2.553       2.325       2.194       1.947       1.566       1.125      0.7368      0.3722       0.000    
  48    10.00       9.955       9.899       9.792       9.673       9.563       9.441       9.336       9.187       8.902    
        8.569       8.339       8.154       7.899       7.591       7.318       7.141       6.978       6.870       6.800    
        6.718       6.612       6.495       6.383       6.294       6.226       6.142       6.012       5.869       5.745    
        5.608       5.409       5.063       4.708       4.389       4.099       3.880       3.704       3.497       3.154    
        2.785       2.543       2.362       2.129       1.805       1.468       1.089      0.7420      0.3928       0.000    
  49    10.00       9.953       9.867       9.764       9.675       9.556       9.437       9.327       9.139       8.837    
        8.540       8.319       8.088       7.830       7.598       7.344       7.098       6.946       6.880       6.815    
        6.737       6.615       6.480       6.382       6.314       6.264       6.168       6.017       5.867       5.754    
        5.607       5.344       5.039       4.788       4.520       4.201       3.917       3.699       3.456       3.088    
        2.791       2.579       2.329       1.993       1.706       1.402       1.071      0.7543      0.3841       0.000    
  50    10.00       9.940       9.846       9.752       9.680       9.569       9.438       9.297       9.094       8.856    
        8.554       8.259       8.018       7.812       7.626       7.341       7.061       6.946       6.888       6.825    
        6.750       6.613       6.468       6.380       6.326       6.280       6.172       6.010       5.867       5.752    
        5.591       5.315       5.080       4.865       4.575       4.257       3.970       3.681       3.331       3.005    
        2.848       2.625       2.259       1.922       1.681       1.391       1.104      0.7367      0.3026       0.000    

 HEAD WILL BE SAVED ON UNIT   51 AT END OF TIME STEP  47, STRESS PERIOD    2

 DRAWDOWN WILL BE SAVED ON UNIT   52 AT END OF TIME STEP  47, STRESS PERIOD    2
1
  VOLUMETRIC BUDGET FOR ENTIRE MODEL AT END OF TIME STEP 47 IN STRESS PERIOD   2
  ------------------------------------------------------------------------------

     CUMULATIVE VOLUMES      L**3       RATES FOR THIS TIME STEP      L**3/T
     ------------------                 ------------------------

           IN:                                      IN:
           ---                                      ---
             STORAGE =       23056.7383               STORAGE =         465.3292
       CONSTANT HEAD =       26348.9238         CONSTANT HEAD =         573.5156
               WELLS =           0.0000                 WELLS =           0.0000

            TOTAL IN =       49405.6641              TOTAL IN =        1038.8448

          OUT:                                     OUT:
          ----                                     ----
             STORAGE =       9.3745E-03               STORAGE =           0.0000
       CONSTANT HEAD =       25905.6445         CONSTANT HEAD =         538.8450
               WELLS =       23500.0000                 WELLS =         500.0000

           TOTAL OUT =       49405.6523             TOTAL OUT =        1038.8450

            IN - OUT =       1.1719E-02              IN - OUT =      -1.2207E-04

 PERCENT DISCREPANCY =           0.00     PERCENT DISCREPANCY =           0.00






          TIME SUMMARY AT END OF TIME STEP  47 IN STRESS PERIOD    2
                    SECONDS     MINUTES      HOURS       DAYS        YEARS
                    -----------------------------------------------------------
   TIME STEP LENGTH  86400.      1440.0      24.000      1.0000     2.73785E-03
 STRESS PERIOD TIME 4.06080E+06  67680.      1128.0      47.000     0.12868    
         TOTAL TIME 4.14720E+06  69120.      1152.0      48.000     0.13142    
1
 
 SOLVING FOR HEAD 

 OUTPUT CONTROL FOR STRESS PERIOD    2   TIME STEP  48
    SAVE HEAD FOR ALL LAYERS
    SAVE DRAWDOWN FOR ALL LAYERS
    SAVE BUDGET
    PRINT HEAD FOR ALL LAYERS
    PRINT BUDGET
 UBDSV1 SAVING "         STORAGE" ON UNIT  53 AT TIME STEP 48, STRESS PERIOD   2
 UBDSV2 SAVING "   CONSTANT HEAD" ON UNIT  53 AT TIME STEP 48, STRESS PERIOD   2
 UBDSV1 SAVING "FLOW RIGHT FACE " ON UNIT  53 AT TIME STEP 48, STRESS PERIOD   2
 UBDSV1 SAVING "FLOW FRONT FACE " ON UNIT  53 AT TIME STEP 48, STRESS PERIOD   2
1
              HEAD IN LAYER   1 AT END OF TIME STEP  48 IN STRESS PERIOD    2
  ---------------------------------------------------------------------------

            1           2           3           4           5           6           7           8           9          10
           11          12          13          14          15          16          17          18          19          20
           21          22          23          24          25          26          27          28          29          30
           31          32          33          34          35          36          37          38          39          40
           41          42          43          44          45          46          47          48          49          50
 ........................................................................................................................
   1    10.00       9.957       9.898       9.840       9.791       9.731       9.673       9.612       9.529       9.462    
        9.422       9.382       9.338       9.294       9.223       9.145       9.061       8.995       8.965       8.932    
        8.891       8.856       8.820       8.775       8.711       8.601       8.469       8.339       8.191       8.043    
        7.833       7.499       7.105       6.691       6.226       5.796       5.432       5.094       4.632       4.130    
        3.703       3.280       2.698       2.145       1.758       1.370       1.045      0.8346      0.5535       0.000    
   2    10.00       9.957       9.904       9.845       9.793       9.738       9.673       9.593       9.514       9.462    
        9.426       9.390       9.356       9.301       9.220       9.140       9.062       8.998       8.965       8.928    
        8.886       8.860       8.831       8.783       8.710       8.605       8.471       8.337       8.197       8.050    
        7.823       7.479       7.065       6.596       6.127       5.713       5.387       5.055       4.587       4.116    
        3.684       3.176       2.650       2.213       1.828       1.467       1.096      0.7927      0.4232       0.000    
   3    10.00       9.952       9.902       9.848       9.796       9.732       9.651       9.575       9.525       9.477    
        9.436       9.405       9.371       9.319       9.238       9.138       9.057       9.003       8.963       8.925    
        8.890       8.862       8.833       8.772       8.695       8.588       8.462       8.360       8.213       8.038    
        7.745       7.345       6.905       6.450       6.018       5.633       5.342       5.000       4.493       4.035    
        3.676       3.214       2.729       2.309       1.910       1.545       1.106      0.6801      0.2991       0.000    
   4    10.00       9.956       9.905       9.846       9.781       9.708       9.631       9.574       9.531       9.487    
        9.451       9.424       9.387       9.331       9.257       9.147       9.056       9.007       8.963       8.928    
        8.889       8.854       8.818       8.754       8.675       8.572       8.448       8.334       8.220       8.001    
        7.623       7.134       6.663       6.315       5.993       5.620       5.246       4.812       4.384       4.050    
        3.731       3.321       2.836       2.422       2.003       1.561       1.055      0.6039      0.2813       0.000    
   5    10.00       9.953       9.899       9.832       9.764       9.697       9.629       9.581       9.536       9.498    
        9.467       9.439       9.395       9.330       9.243       9.143       9.066       9.011       8.967       8.917    
        8.872       8.837       8.791       8.725       8.651       8.533       8.410       8.312       8.198       7.919    
        7.423       6.886       6.497       6.233       5.941       5.564       5.138       4.710       4.407       4.124    
        3.835       3.413       2.907       2.545       2.119       1.541      0.9598      0.5574      0.2804       0.000    
   6    10.00       9.942       9.877       9.825       9.761       9.691       9.634       9.591       9.545       9.509    
        9.480       9.446       9.390       9.314       9.240       9.157       9.073       9.006       8.948       8.892    
        8.852       8.814       8.772       8.702       8.593       8.480       8.389       8.282       8.090       7.689    
        7.137       6.652       6.355       6.156       5.921       5.507       5.045       4.706       4.482       4.235    
        3.955       3.573       3.071       2.621       2.093       1.474      0.8606      0.4902      0.2739       0.000    
   7    10.00       9.925       9.864       9.813       9.753       9.702       9.648       9.603       9.564       9.526    
        9.488       9.439       9.371       9.297       9.230       9.162       9.069       8.978       8.916       8.870    
        8.831       8.790       8.746       8.653       8.541       8.450       8.350       8.180       7.856       7.346    
        6.824       6.446       6.262       6.108       5.809       5.400       5.096       4.801       4.559       4.387    
        4.104       3.709       3.172       2.589       1.939       1.228      0.7213      0.4977      0.2521       0.000    
   8    10.00       9.920       9.864       9.810       9.755       9.710       9.664       9.620       9.583       9.547    
        9.492       9.420       9.349       9.284       9.221       9.137       9.026       8.940       8.894       8.849    
        8.803       8.768       8.696       8.597       8.497       8.390       8.201       7.932       7.489       7.048    
        6.660       6.362       6.222       6.035       5.698       5.383       5.131       4.914       4.720       4.518    
        4.224       3.738       3.117       2.452       1.712       1.109      0.7634      0.4883      0.2249       0.000    
   9    10.00       9.924       9.861       9.807       9.768       9.730       9.685       9.642       9.600       9.558    
        9.488       9.401       9.327       9.261       9.185       9.091       8.991       8.915       8.867       8.820    
        8.778       8.722       8.622       8.530       8.427       8.278       8.005       7.600       7.163       6.847    
        6.541       6.323       6.168       5.918       5.608       5.365       5.186       5.021       4.855       4.635    
        4.271       3.764       3.104       2.361       1.679       1.148      0.7788      0.4843      0.2401       0.000    
  10    10.00       9.923       9.859       9.815       9.780       9.743       9.704       9.666       9.616       9.551    
        9.466       9.378       9.306       9.234       9.154       9.045       8.945       8.884       8.841       8.794    
        8.750       8.658       8.551       8.450       8.308       8.085       7.678       7.239       6.895       6.657    
        6.475       6.297       6.088       5.833       5.570       5.386       5.252       5.115       4.930       4.675    
        4.284       3.728       3.022       2.358       1.818       1.315      0.8340      0.5142      0.2710       0.000    
  11    10.00       9.913       9.863       9.826       9.791       9.759       9.724       9.674       9.604       9.530    
        9.446       9.359       9.290       9.195       9.085       8.990       8.918       8.860       8.817       8.765    
        8.687       8.569       8.415       8.265       8.018       7.686       7.326       7.034       6.757       6.585    
        6.432       6.200       5.964       5.775       5.600       5.464       5.331       5.155       4.937       4.637    
        4.271       3.779       3.064       2.457       1.978       1.495      0.9608      0.5094      0.2045       0.000    
  12    10.00       9.920       9.871       9.833       9.803       9.770       9.731       9.663       9.580       9.505    
        9.425       9.339       9.246       9.130       9.040       8.958       8.883       8.835       8.779       8.700    
        8.549       8.346       8.131       7.907       7.601       7.347       7.157       6.859       6.630       6.494    
        6.331       6.116       5.929       5.769       5.655       5.532       5.373       5.175       4.914       4.599    
        4.238       3.756       3.101       2.558       2.124       1.602       1.011      0.4819      0.1602       0.000    
  13    10.00       9.938       9.893       9.851       9.813       9.775       9.718       9.635       9.549       9.474    
        9.390       9.303       9.206       9.087       8.983       8.901       8.848       8.786       8.708       8.524    
        8.248       8.002       7.768       7.489       7.249       7.135       6.901       6.630       6.512       6.399    
        6.224       6.038       5.904       5.794       5.700       5.587       5.405       5.158       4.901       4.576    
        4.216       3.726       3.049       2.542       2.139       1.567      0.9414      0.4358      0.1259       0.000    
  14    10.00       9.954       9.914       9.869       9.825       9.766       9.684       9.596       9.519       9.434    
        9.351       9.271       9.155       9.022       8.928       8.862       8.775       8.682       8.498       8.175    
        7.879       7.659       7.351       7.122       7.013       6.885       6.644       6.487       6.370       6.261    
        6.113       5.997       5.917       5.826       5.728       5.613       5.408       5.137       4.862       4.531    
        4.144       3.552       2.913       2.504       2.011       1.462      0.9286      0.3981      0.1025       0.000    
  15    10.00       9.964       9.923       9.879       9.827       9.739       9.638       9.561       9.484       9.403    
        9.339       9.246       9.093       8.949       8.862       8.748       8.631       8.512       8.203       7.823    
        7.578       7.266       6.984       6.897       6.830       6.662       6.469       6.315       6.231       6.152    
        6.061       5.994       5.931       5.856       5.752       5.610       5.374       5.066       4.776       4.470    
        4.051       3.474       2.922       2.370       1.774       1.283      0.7986      0.3509      0.1053       0.000    
  16    10.00       9.974       9.933       9.881       9.801       9.693       9.606       9.543       9.474       9.390    
        9.304       9.172       8.996       8.857       8.732       8.597       8.516       8.276       7.827       7.475    
        7.227       6.919       6.813       6.760       6.636       6.424       6.268       6.196       6.169       6.114    
        6.048       5.993       5.943       5.863       5.739       5.562       5.279       4.999       4.770       4.440    
        3.963       3.340       2.705       2.093       1.586       1.100      0.6805      0.3332      0.1124       0.000    
  17    10.00       9.974       9.931       9.863       9.764       9.656       9.583       9.526       9.449       9.355    
        9.213       9.045       8.886       8.734       8.578       8.448       8.251       7.848       7.426       7.182    
        6.937       6.747       6.663       6.543       6.349       6.191       6.150       6.141       6.123       6.076    
        6.024       5.983       5.937       5.863       5.687       5.445       5.201       5.002       4.783       4.368    
        3.730       3.095       2.489       1.888       1.356      0.8902      0.5704      0.2979      0.1224       0.000    
  18    10.00       9.968       9.918       9.836       9.713       9.626       9.569       9.491       9.403       9.273    
        9.102       8.951       8.791       8.587       8.382       8.165       7.877       7.466       7.149       6.934    
        6.734       6.574       6.447       6.275       6.142       6.101       6.090       6.087       6.063       6.028    
        5.997       5.965       5.912       5.788       5.604       5.398       5.191       5.013       4.706       4.152    
        3.499       2.822       2.175       1.682       1.259      0.8346      0.4899      0.2464      0.1181       0.000    
  19    10.00       9.960       9.906       9.787       9.664       9.613       9.549       9.454       9.345       9.206    
        9.049       8.907       8.676       8.365       8.122       7.897       7.547       7.171       6.956       6.790    
        6.584       6.389       6.250       6.117       6.052       6.037       6.032       6.014       5.985       5.973    
        5.957       5.929       5.853       5.732       5.576       5.376       5.187       4.931       4.407       3.830    
        3.303       2.604       1.989       1.597       1.177      0.7530      0.4424      0.2509      0.1285       0.000    
  20    10.00       9.952       9.861       9.739       9.650       9.594       9.525       9.423       9.303       9.176    
        9.014       8.798       8.453       8.143       7.925       7.647       7.297       7.091       6.895       6.664    
        6.436       6.262       6.117       6.023       5.975       5.952       5.923       5.916       5.902       5.906    
        5.903       5.878       5.799       5.685       5.525       5.349       5.114       4.647       4.079       3.618    
        3.045       2.401       1.941       1.562       1.138      0.6681      0.3863      0.2612      0.1346       0.000    
  21    10.00       9.920       9.823       9.721       9.633       9.575       9.501       9.382       9.262       9.142    
        8.927       8.596       8.243       8.008       7.764       7.469       7.209       7.013       6.777       6.532    
        6.313       6.143       6.015       5.917       5.851       5.802       5.786       5.795       5.798       5.813    
        5.829       5.797       5.717       5.608       5.446       5.252       4.884       4.391       3.939       3.378    
        2.836       2.328       1.939       1.555      0.9581      0.5408      0.3909      0.2950      0.1414       0.000    
  22    10.00       9.899       9.783       9.692       9.623       9.553       9.448       9.338       9.231       9.065    
        8.789       8.415       8.132       7.920       7.645       7.343       7.093       6.885       6.668       6.436    
        6.219       6.038       5.869       5.716       5.631       5.612       5.630       5.645       5.683       5.707    
        5.727       5.692       5.624       5.510       5.346       5.153       4.774       4.296       3.706       3.163    
        2.769       2.363       1.895       1.253      0.7469      0.5389      0.4097      0.2728      0.1009       0.000    
  23    10.00       9.869       9.756       9.685       9.612       9.508       9.393       9.310       9.176       8.968    
        8.643       8.323       8.119       7.854       7.497       7.196       6.998       6.829       6.626       6.376    
        6.147       5.936       5.693       5.407       5.199       5.244       5.380       5.469       5.550       5.604    
        5.624       5.601       5.537       5.431       5.275       5.056       4.673       4.081       3.489       3.105    
        2.743       2.230       1.560       1.010      0.7348      0.5495      0.3930      0.2319      9.2259E-02   0.000    
  24    10.00       9.849       9.768       9.682       9.577       9.468       9.381       9.288       9.159       8.882    
        8.578       8.341       8.111       7.758       7.365       7.148       6.981       6.814       6.584       6.349    
        6.145       5.877       5.488       4.947       4.287       4.559       4.964       5.247       5.413       5.499    
        5.538       5.522       5.469       5.352       5.179       4.905       4.420       3.859       3.414       3.014    
        2.569       1.998       1.399      0.9789      0.7360      0.5352      0.3585      0.2512      0.1233       0.000    
  25    10.00       9.866       9.783       9.674       9.565       9.466       9.378       9.293       9.099       8.829    
        8.595       8.355       8.054       7.665       7.374       7.180       6.992       6.791       6.581       6.379    
        6.144       5.888       5.332       4.302       2.467       3.837       4.581       5.023       5.296       5.436    
        5.482       5.471       5.408       5.247       5.011       4.639       4.183       3.742       3.360       2.892    
        2.355       1.810       1.305      0.9701      0.7628      0.5561      0.3777      0.2630      0.1637       0.000    
  26    10.00       9.884       9.803       9.689       9.571       9.481       9.387       9.262       9.069       8.882    
        8.662       8.334       7.966       7.651       7.432       7.242       7.024       6.778       6.574       6.405    
        6.210       5.957       5.478       4.722       3.884       4.241       4.692       5.023       5.276       5.424    
        5.457       5.433       5.333       5.140       4.879       4.524       4.020       3.602       3.245       2.677    
        2.070       1.593       1.292       1.059      0.8226      0.6003      0.4117      0.2857      0.1669       0.000    
  27    10.00       9.907       9.807       9.704       9.603       9.496       9.391       9.264       9.105       8.934    
        8.657       8.287       7.964       7.704       7.519       7.302       7.019       6.762       6.603       6.464    
        6.312       6.080       5.717       5.273       4.824       4.798       4.972       5.185       5.370       5.450    
        5.450       5.410       5.292       5.081       4.776       4.295       3.821       3.477       2.936       2.340    
        1.870       1.563       1.337       1.133      0.8992      0.6552      0.4472      0.3144      0.1984       0.000    
  28    10.00       9.914       9.831       9.738       9.638       9.525       9.409       9.286       9.148       8.948    
        8.623       8.301       8.020       7.765       7.570       7.357       7.126       6.879       6.656       6.513    
        6.392       6.227       5.994       5.673       5.401       5.242       5.280       5.414       5.475       5.489    
        5.458       5.392       5.246       4.978       4.574       4.076       3.669       3.186       2.623       2.201    
        1.866       1.606       1.385       1.172      0.9448      0.7149      0.5073      0.3580      0.2046       0.000    
  29    10.00       9.920       9.839       9.765       9.668       9.565       9.452       9.326       9.175       8.907    
        8.604       8.331       8.064       7.850       7.628       7.402       7.193       6.996       6.782       6.595    
        6.465       6.339       6.185       5.995       5.738       5.612       5.598       5.603       5.601       5.550    
        5.471       5.343       5.166       4.820       4.327       3.890       3.479       2.977       2.527       2.218    
        1.947       1.662       1.410       1.207       1.002      0.7560      0.5360      0.3741      0.2074       0.000    
  30    10.00       9.930       9.863       9.799       9.711       9.610       9.508       9.366       9.162       8.918    
        8.612       8.316       8.098       7.883       7.673       7.470       7.301       7.119       6.912       6.714    
        6.555       6.448       6.319       6.191       6.052       5.935       5.892       5.799       5.729       5.616    
        5.458       5.239       4.991       4.626       4.241       3.832       3.394       2.923       2.583       2.303    
        1.981       1.695       1.476       1.244       1.000      0.7823      0.5713      0.3973      0.2232       0.000    
  31    10.00       9.944       9.889       9.828       9.763       9.681       9.566       9.388       9.156       8.899    
        8.604       8.340       8.141       7.932       7.737       7.550       7.382       7.241       7.033       6.835    
        6.690       6.576       6.475       6.374       6.297       6.188       6.072       5.966       5.826       5.647    
        5.393       5.115       4.860       4.565       4.198       3.765       3.322       2.937       2.698       2.431    
        2.072       1.759       1.509       1.274       1.047      0.8230      0.6054      0.4181      0.2165       0.000    
  32    10.00       9.952       9.912       9.859       9.797       9.719       9.596       9.393       9.181       8.938    
        8.635       8.391       8.204       7.988       7.781       7.629       7.484       7.316       7.150       6.956    
        6.806       6.686       6.592       6.502       6.414       6.328       6.192       6.052       5.869       5.623    
        5.332       5.056       4.794       4.512       4.151       3.762       3.414       3.087       2.812       2.506    
        2.175       1.865       1.602       1.331       1.084      0.8949      0.6675      0.4102      0.1831       0.000    
  33    10.00       9.959       9.928       9.883       9.820       9.737       9.577       9.376       9.206       8.988    
        8.711       8.480       8.259       8.018       7.835       7.708       7.582       7.411       7.229       7.061    
        6.896       6.772       6.656       6.558       6.481       6.395       6.246       6.050       5.854       5.618    
        5.327       5.080       4.806       4.459       4.123       3.778       3.496       3.237       2.925       2.588    
        2.302       2.009       1.720       1.440       1.180      0.9688      0.7141      0.4121      0.1791       0.000    
  34    10.00       9.966       9.942       9.904       9.822       9.700       9.552       9.413       9.237       9.022    
        8.787       8.535       8.288       8.052       7.903       7.799       7.664       7.500       7.295       7.132    
        6.983       6.828       6.703       6.607       6.529       6.416       6.241       6.054       5.845       5.570    
        5.313       5.112       4.842       4.507       4.173       3.856       3.589       3.333       3.010       2.705    
        2.450       2.168       1.852       1.574       1.311       1.067      0.7637      0.4636      0.2431       0.000    
  35    10.00       9.972       9.943       9.888       9.787       9.668       9.562       9.442       9.300       9.068    
        8.810       8.559       8.309       8.115       7.984       7.874       7.730       7.556       7.357       7.164    
        7.009       6.863       6.736       6.644       6.558       6.443       6.252       6.029       5.784       5.497    
        5.303       5.093       4.819       4.574       4.295       3.961       3.667       3.452       3.148       2.823    
        2.577       2.288       1.971       1.698       1.424       1.158      0.8753      0.5801      0.2870       0.000    
  36    10.00       9.966       9.919       9.859       9.765       9.654       9.566       9.463       9.309       9.086    
        8.805       8.539       8.362       8.215       8.085       7.945       7.775       7.599       7.387       7.134    
        6.963       6.853       6.742       6.665       6.578       6.433       6.218       5.973       5.672       5.412    
        5.247       5.076       4.841       4.604       4.372       4.074       3.782       3.553       3.282       2.927    
        2.657       2.335       2.019       1.810       1.544       1.248      0.9655      0.6570      0.3214       0.000    
  37    10.00       9.947       9.897       9.837       9.745       9.649       9.549       9.450       9.309       9.049    
        8.757       8.554       8.450       8.309       8.148       8.008       7.799       7.581       7.311       7.053    
        6.940       6.846       6.740       6.655       6.554       6.375       6.156       5.836       5.560       5.390    
        5.247       5.064       4.833       4.647       4.410       4.129       3.900       3.681       3.376       2.987    
        2.632       2.330       2.111       1.894       1.628       1.347       1.064      0.7246      0.3978       0.000    
  38    10.00       9.940       9.875       9.813       9.732       9.640       9.534       9.427       9.266       9.022    
        8.804       8.643       8.510       8.383       8.209       7.981       7.746       7.492       7.191       7.018    
        6.927       6.805       6.695       6.624       6.508       6.307       5.985       5.684       5.539       5.411    
        5.260       5.066       4.858       4.673       4.442       4.186       3.999       3.776       3.388       2.959    
        2.652       2.399       2.182       1.958       1.722       1.437       1.155      0.8379      0.4141       0.000    
  39    10.00       9.923       9.860       9.803       9.726       9.622       9.509       9.399       9.247       9.047    
        8.877       8.754       8.605       8.430       8.178       7.892       7.628       7.331       7.117       7.006    
        6.869       6.727       6.643       6.574       6.461       6.194       5.870       5.689       5.557       5.424    
        5.254       5.071       4.871       4.686       4.511       4.302       4.056       3.785       3.403       3.004    
        2.679       2.419       2.247       2.060       1.794       1.512       1.226      0.8722      0.4087       0.000    
  40    10.00       9.914       9.854       9.796       9.717       9.609       9.500       9.390       9.255       9.089    
        8.949       8.841       8.657       8.383       8.067       7.781       7.501       7.247       7.091       6.952    
        6.793       6.670       6.600       6.513       6.361       6.122       5.905       5.724       5.577       5.438    
        5.272       5.076       4.887       4.733       4.579       4.368       4.084       3.801       3.412       2.984    
        2.681       2.474       2.286       2.125       1.846       1.537       1.275      0.8746      0.4072       0.000    
  41    10.00       9.922       9.852       9.783       9.697       9.612       9.520       9.419       9.285       9.134    
        9.000       8.868       8.631       8.306       7.980       7.712       7.437       7.195       7.043       6.892    
        6.732       6.624       6.546       6.443       6.286       6.107       5.961       5.786       5.602       5.440    
        5.280       5.104       4.923       4.789       4.626       4.415       4.131       3.740       3.295       2.965    
        2.745       2.545       2.350       2.127       1.836       1.540       1.316      0.9318      0.4225       0.000    
  42    10.00       9.922       9.842       9.781       9.718       9.640       9.542       9.427       9.313       9.197    
        9.025       8.798       8.523       8.212       7.910       7.666       7.397       7.162       6.997       6.827    
        6.678       6.583       6.496       6.402       6.261       6.137       6.013       5.815       5.608       5.463    
        5.332       5.139       4.946       4.816       4.665       4.440       4.091       3.630       3.222       2.977    
        2.811       2.633       2.384       2.087       1.808       1.577       1.344      0.9828      0.4849       0.000    
  43    10.00       9.915       9.848       9.796       9.745       9.670       9.574       9.464       9.337       9.157    
        8.935       8.702       8.444       8.120       7.849       7.623       7.382       7.145       6.937       6.778    
        6.644       6.548       6.475       6.398       6.278       6.150       6.024       5.819       5.639       5.532    
        5.373       5.165       4.979       4.845       4.668       4.377       3.974       3.538       3.240       3.052    
        2.875       2.670       2.365       2.060       1.814       1.591       1.390      0.9967      0.4554       0.000    
  44    10.00       9.914       9.856       9.809       9.749       9.692       9.612       9.466       9.277       9.069    
        8.883       8.647       8.335       8.065       7.848       7.589       7.325       7.074       6.868       6.729    
        6.631       6.549       6.475       6.396       6.292       6.161       5.991       5.821       5.700       5.573    
        5.430       5.248       5.035       4.831       4.616       4.290       3.867       3.508       3.278       3.097    
        2.918       2.675       2.380       2.116       1.853       1.613       1.368      0.8998      0.4138       0.000    
  45    10.00       9.924       9.870       9.808       9.749       9.700       9.570       9.395       9.205       9.026    
        8.872       8.557       8.233       8.036       7.803       7.516       7.229       6.997       6.831       6.720    
        6.646       6.568       6.487       6.393       6.278       6.150       6.007       5.876       5.770       5.637    
        5.471       5.284       5.064       4.807       4.550       4.198       3.802       3.519       3.344       3.157    
        2.919       2.641       2.388       2.147       1.914       1.675       1.277      0.7996      0.4024       0.000    
  46    10.00       9.939       9.881       9.808       9.741       9.644       9.502       9.370       9.210       9.018    
        8.763       8.463       8.204       7.954       7.706       7.427       7.161       6.990       6.853       6.747    
        6.672       6.597       6.493       6.377       6.266       6.157       6.044       5.925       5.817       5.700    
        5.551       5.353       5.103       4.799       4.431       4.067       3.773       3.574       3.391       3.196    
        2.914       2.618       2.366       2.176       1.953       1.642       1.189      0.7638      0.3765       0.000    
  47    10.00       9.950       9.895       9.823       9.708       9.580       9.458       9.355       9.208       8.955    
        8.650       8.374       8.149       7.940       7.676       7.374       7.138       6.976       6.867       6.778    
        6.697       6.609       6.500       6.378       6.270       6.184       6.091       5.973       5.849       5.734    
        5.604       5.438       5.107       4.680       4.321       4.059       3.813       3.641       3.480       3.210    
        2.867       2.553       2.325       2.194       1.947       1.566       1.124      0.7367      0.3722       0.000    
  48    10.00       9.955       9.898       9.792       9.673       9.562       9.440       9.335       9.187       8.901    
        8.568       8.338       8.153       7.897       7.590       7.317       7.140       6.977       6.868       6.799    
        6.716       6.611       6.494       6.381       6.292       6.224       6.141       6.010       5.867       5.743    
        5.607       5.408       5.062       4.708       4.388       4.099       3.879       3.703       3.497       3.154    
        2.785       2.543       2.362       2.129       1.805       1.468       1.089      0.7420      0.3928       0.000    
  49    10.00       9.953       9.867       9.764       9.675       9.556       9.437       9.326       9.139       8.836    
        8.539       8.318       8.087       7.829       7.597       7.343       7.097       6.945       6.878       6.814    
        6.735       6.614       6.478       6.381       6.313       6.262       6.167       6.016       5.865       5.753    
        5.606       5.343       5.038       4.787       4.519       4.200       3.917       3.699       3.456       3.088    
        2.791       2.579       2.329       1.993       1.706       1.402       1.071      0.7542      0.3841       0.000    
  50    10.00       9.940       9.846       9.752       9.680       9.569       9.438       9.296       9.094       8.855    
        8.553       8.258       8.017       7.811       7.625       7.340       7.060       6.945       6.887       6.824    
        6.749       6.612       6.467       6.378       6.325       6.278       6.171       6.009       5.865       5.751    
        5.590       5.314       5.079       4.864       4.574       4.257       3.969       3.680       3.330       3.005    
        2.848       2.625       2.259       1.922       1.681       1.391       1.104      0.7367      0.3026       0.000    

 HEAD WILL BE SAVED ON UNIT   51 AT END OF TIME STEP  48, STRESS PERIOD    2

 DRAWDOWN WILL BE SAVED ON UNIT   52 AT END OF TIME STEP  48, STRESS PERIOD    2
1
  VOLUMETRIC BUDGET FOR ENTIRE MODEL AT END OF TIME STEP 48 IN STRESS PERIOD   2
  ------------------------------------------------------------------------------

     CUMULATIVE VOLUMES      L**3       RATES FOR THIS TIME STEP      L**3/T
     ------------------                 ------------------------

           IN:                                      IN:
           ---                                      ---
             STORAGE =       23520.2988               STORAGE =         463.5610
       CONSTANT HEAD =       26924.1094         CONSTANT HEAD =         575.1848
               WELLS =           0.0000                 WELLS =           0.0000

            TOTAL IN =       50444.4062              TOTAL IN =        1038.7457

          OUT:                                     OUT:
          ----                                     ----
             STORAGE =       9.3745E-03               STORAGE =           0.0000
       CONSTANT HEAD =       26444.3906         CONSTANT HEAD =         538.7458
               WELLS =       24000.0000                 WELLS =         500.0000

           TOTAL OUT =       50444.3984             TOTAL OUT =        1038.7458

            IN - OUT =       7.8125E-03              IN - OUT =      -1.2207E-04

 PERCENT DISCREPANCY =           0.00     PERCENT DISCREPANCY =           0.00






          TIME SUMMARY AT END OF TIME STEP  48 IN STRESS PERIOD    2
                    SECONDS     MINUTES      HOURS       DAYS        YEARS
                    -----------------------------------------------------------
   TIME STEP LENGTH  86400.      1440.0      24.000      1.0000     2.73785E-03
 STRESS PERIOD TIME 4.14720E+06  69120.      1152.0      48.000     0.13142    
         TOTAL TIME 4.23360E+06  70560.      1176.0      49.000     0.13415    
1
 
 SOLVING FOR HEAD 

 OUTPUT CONTROL FOR STRESS PERIOD    2   TIME STEP  49
    SAVE HEAD FOR ALL LAYERS
    SAVE DRAWDOWN FOR ALL LAYERS
    SAVE BUDGET
    PRINT HEAD FOR ALL LAYERS
    PRINT BUDGET
 UBDSV1 SAVING "         STORAGE" ON UNIT  53 AT TIME STEP 49, STRESS PERIOD   2
 UBDSV2 SAVING "   CONSTANT HEAD" ON UNIT  53 AT TIME STEP 49, STRESS PERIOD   2
 UBDSV1 SAVING "FLOW RIGHT FACE " ON UNIT  53 AT TIME STEP 49, STRESS PERIOD   2
 UBDSV1 SAVING "FLOW FRONT FACE " ON UNIT  53 AT TIME STEP 49, STRESS PERIOD   2
1
              HEAD IN LAYER   1 AT END OF TIME STEP  49 IN STRESS PERIOD    2
  ---------------------------------------------------------------------------

            1           2           3           4           5           6           7           8           9          10
           11          12          13          14          15          16          17          18          19          20
           21          22          23          24          25          26          27          28          29          30
           31          32          33          34          35          36          37          38          39          40
           41          42          43          44          45          46          47          48          49          50
 ........................................................................................................................
   1    10.00       9.957       9.898       9.839       9.790       9.731       9.672       9.610       9.528       9.460    
        9.420       9.380       9.336       9.292       9.221       9.143       9.058       8.992       8.962       8.929    
        8.888       8.853       8.817       8.771       8.708       8.598       8.465       8.336       8.188       8.040    
        7.830       7.496       7.103       6.688       6.224       5.794       5.430       5.092       4.630       4.128    
        3.701       3.279       2.697       2.144       1.757       1.369       1.044      0.8343      0.5533       0.000    
   2    10.00       9.956       9.904       9.845       9.793       9.737       9.672       9.592       9.512       9.460    
        9.424       9.388       9.354       9.299       9.218       9.137       9.060       8.995       8.962       8.925    
        8.883       8.856       8.828       8.779       8.707       8.602       8.468       8.333       8.194       8.047    
        7.820       7.476       7.062       6.593       6.124       5.710       5.385       5.053       4.585       4.114    
        3.683       3.175       2.649       2.212       1.828       1.466       1.095      0.7923      0.4230       0.000    
   3    10.00       9.952       9.902       9.848       9.795       9.731       9.650       9.574       9.523       9.476    
        9.434       9.403       9.369       9.317       9.236       9.136       9.054       9.000       8.960       8.922    
        8.887       8.859       8.830       8.769       8.691       8.585       8.458       8.357       8.210       8.035    
        7.742       7.342       6.902       6.447       6.016       5.630       5.340       4.998       4.491       4.033    
        3.674       3.212       2.728       2.308       1.909       1.544       1.105      0.6798      0.2990       0.000    
   4    10.00       9.956       9.904       9.846       9.780       9.707       9.630       9.573       9.530       9.485    
        9.449       9.422       9.385       9.329       9.254       9.145       9.054       9.004       8.960       8.925    
        8.885       8.851       8.815       8.750       8.671       8.568       8.445       8.331       8.216       7.998    
        7.620       7.131       6.660       6.312       5.990       5.617       5.243       4.809       4.382       4.048    
        3.729       3.319       2.835       2.420       2.002       1.560       1.054      0.6037      0.2812       0.000    
   5    10.00       9.953       9.898       9.831       9.764       9.696       9.628       9.580       9.535       9.496    
        9.465       9.437       9.393       9.328       9.241       9.141       9.063       9.008       8.964       8.914    
        8.868       8.833       8.787       8.722       8.647       8.529       8.406       8.309       8.194       7.915    
        7.419       6.881       6.493       6.229       5.937       5.560       5.135       4.707       4.404       4.121    
        3.833       3.411       2.906       2.544       2.118       1.540      0.9593      0.5572      0.2803       0.000    
   6    10.00       9.942       9.877       9.824       9.761       9.690       9.633       9.589       9.543       9.508    
        9.479       9.444       9.388       9.312       9.237       9.154       9.070       9.003       8.945       8.889    
        8.848       8.810       8.768       8.699       8.589       8.476       8.385       8.278       8.086       7.684    
        7.132       6.647       6.350       6.151       5.916       5.503       5.041       4.702       4.479       4.231    
        3.952       3.570       3.069       2.619       2.092       1.473      0.8602      0.4900      0.2738       0.000    
   7    10.00       9.925       9.864       9.813       9.752       9.701       9.647       9.601       9.562       9.525    
        9.487       9.437       9.369       9.295       9.228       9.159       9.066       8.974       8.913       8.867    
        8.827       8.786       8.742       8.649       8.537       8.446       8.346       8.175       7.851       7.340    
        6.818       6.440       6.256       6.103       5.804       5.395       5.091       4.796       4.555       4.383    
        4.101       3.707       3.170       2.587       1.938       1.228      0.7210      0.4975      0.2520       0.000    
   8    10.00       9.920       9.864       9.809       9.754       9.709       9.663       9.619       9.581       9.545    
        9.490       9.418       9.346       9.282       9.218       9.134       9.023       8.937       8.890       8.846    
        8.799       8.764       8.692       8.592       8.492       8.385       8.197       7.926       7.483       7.041    
        6.653       6.355       6.216       6.029       5.692       5.377       5.125       4.909       4.716       4.513    
        4.221       3.735       3.115       2.451       1.711       1.108      0.7631      0.4881      0.2249       0.000    
   9    10.00       9.924       9.861       9.807       9.768       9.729       9.684       9.641       9.598       9.557    
        9.486       9.398       9.325       9.259       9.182       9.088       8.988       8.911       8.863       8.816    
        8.774       8.718       8.617       8.525       8.422       8.273       7.999       7.593       7.155       6.839    
        6.534       6.316       6.161       5.911       5.602       5.359       5.180       5.015       4.850       4.630    
        4.268       3.761       3.102       2.359       1.678       1.147      0.7784      0.4841      0.2400       0.000    
  10    10.00       9.923       9.858       9.814       9.779       9.742       9.703       9.665       9.615       9.549    
        9.464       9.376       9.303       9.231       9.151       9.042       8.941       8.880       8.837       8.790    
        8.746       8.654       8.546       8.444       8.302       8.078       7.670       7.231       6.886       6.648    
        6.466       6.288       6.080       5.825       5.562       5.379       5.245       5.110       4.925       4.670    
        4.280       3.725       3.020       2.357       1.818       1.314      0.8336      0.5141      0.2709       0.000    
  11    10.00       9.912       9.863       9.826       9.791       9.758       9.723       9.673       9.602       9.528    
        9.444       9.357       9.287       9.191       9.081       8.986       8.913       8.856       8.813       8.761    
        8.682       8.563       8.409       8.258       8.010       7.678       7.316       7.024       6.747       6.576    
        6.423       6.191       5.956       5.767       5.592       5.457       5.324       5.149       4.931       4.632    
        4.267       3.775       3.062       2.456       1.977       1.494      0.9605      0.5093      0.2044       0.000    
  12    10.00       9.920       9.871       9.832       9.803       9.769       9.730       9.662       9.579       9.503    
        9.422       9.336       9.243       9.127       9.036       8.954       8.878       8.830       8.775       8.695    
        8.543       8.340       8.124       7.899       7.592       7.337       7.146       6.848       6.619       6.484    
        6.321       6.106       5.919       5.760       5.646       5.524       5.366       5.169       4.908       4.594    
        4.234       3.753       3.098       2.557       2.123       1.601       1.011      0.4817      0.1602       0.000    
  13    10.00       9.938       9.892       9.850       9.813       9.774       9.717       9.633       9.547       9.472    
        9.387       9.300       9.202       9.083       8.979       8.897       8.843       8.781       8.703       8.518    
        8.240       7.993       7.759       7.478       7.238       7.123       6.889       6.618       6.500       6.387    
        6.213       6.027       5.894       5.784       5.690       5.579       5.397       5.151       4.895       4.571    
        4.212       3.723       3.047       2.540       2.138       1.567      0.9411      0.4357      0.1259       0.000    
  14    10.00       9.954       9.913       9.869       9.824       9.765       9.682       9.595       9.517       9.432    
        9.348       9.267       9.151       9.018       8.923       8.857       8.769       8.676       8.491       8.166    
        7.869       7.648       7.340       7.109       7.001       6.872       6.631       6.474       6.357       6.248    
        6.101       5.986       5.905       5.816       5.719       5.603       5.400       5.130       4.856       4.526    
        4.140       3.548       2.911       2.502       2.010       1.461      0.9283      0.3980      0.1025       0.000    
  15    10.00       9.964       9.923       9.878       9.826       9.738       9.636       9.559       9.482       9.400    
        9.336       9.242       9.089       8.944       8.857       8.742       8.624       8.504       8.194       7.812    
        7.566       7.253       6.970       6.883       6.817       6.648       6.455       6.301       6.217       6.138    
        6.048       5.982       5.920       5.844       5.742       5.600       5.365       5.059       4.770       4.465    
        4.047       3.471       2.919       2.369       1.773       1.282      0.7983      0.3508      0.1053       0.000    
  16    10.00       9.974       9.933       9.880       9.800       9.692       9.604       9.541       9.472       9.387    
        9.301       9.168       8.991       8.852       8.726       8.589       8.508       8.267       7.816       7.463    
        7.213       6.905       6.799       6.745       6.622       6.410       6.253       6.181       6.154       6.100    
        6.034       5.980       5.931       5.851       5.728       5.553       5.271       4.992       4.763       4.434    
        3.958       3.337       2.703       2.092       1.585       1.100      0.6803      0.3331      0.1123       0.000    
  17    10.00       9.973       9.931       9.862       9.763       9.654       9.581       9.523       9.446       9.352    
        9.209       9.039       8.880       8.727       8.571       8.439       8.241       7.836       7.413       7.168    
        6.922       6.732       6.648       6.528       6.333       6.175       6.134       6.125       6.108       6.061    
        6.011       5.969       5.924       5.851       5.676       5.435       5.192       4.994       4.776       4.362    
        3.726       3.092       2.487       1.887       1.356      0.8899      0.5702      0.2978      0.1224       0.000    
  18    10.00       9.967       9.918       9.835       9.712       9.625       9.566       9.488       9.400       9.269    
        9.096       8.945       8.784       8.579       8.373       8.155       7.865       7.452       7.135       6.919    
        6.719       6.558       6.431       6.259       6.126       6.085       6.074       6.071       6.047       6.013    
        5.983       5.951       5.899       5.776       5.593       5.387       5.182       5.005       4.699       4.146    
        3.495       2.820       2.174       1.681       1.258      0.8343      0.4898      0.2463      0.1181       0.000    
  19    10.00       9.960       9.906       9.786       9.662       9.611       9.547       9.451       9.342       9.201    
        9.043       8.901       8.668       8.356       8.111       7.885       7.533       7.156       6.941       6.775    
        6.567       6.373       6.233       6.100       6.035       6.021       6.016       5.997       5.969       5.957    
        5.942       5.915       5.839       5.719       5.564       5.365       5.178       4.922       4.401       3.826    
        3.300       2.602       1.988       1.596       1.176      0.7527      0.4422      0.2508      0.1285       0.000    
  20    10.00       9.951       9.860       9.737       9.648       9.592       9.523       9.420       9.298       9.171    
        9.008       8.791       8.443       8.132       7.913       7.633       7.283       7.076       6.879       6.648    
        6.419       6.245       6.100       6.006       5.959       5.935       5.906       5.899       5.885       5.889    
        5.887       5.863       5.785       5.672       5.513       5.339       5.105       4.640       4.074       3.614    
        3.043       2.399       1.940       1.561       1.137      0.6679      0.3862      0.2611      0.1345       0.000    
  21    10.00       9.919       9.822       9.720       9.631       9.573       9.498       9.378       9.257       9.136    
        8.920       8.588       8.232       7.996       7.751       7.455       7.194       6.998       6.761       6.515    
        6.296       6.126       5.998       5.900       5.834       5.785       5.769       5.778       5.781       5.797    
        5.812       5.781       5.702       5.594       5.433       5.241       4.875       4.384       3.934       3.375    
        2.833       2.326       1.938       1.555      0.9578      0.5406      0.3908      0.2949      0.1414       0.000    
  22    10.00       9.898       9.782       9.690       9.620       9.550       9.445       9.334       9.227       9.059    
        8.782       8.405       8.121       7.908       7.632       7.328       7.078       6.869       6.652       6.420    
        6.202       6.021       5.851       5.699       5.613       5.594       5.612       5.628       5.666       5.690    
        5.710       5.675       5.609       5.496       5.333       5.141       4.765       4.289       3.701       3.160    
        2.767       2.362       1.894       1.253      0.7467      0.5388      0.4096      0.2727      0.1008       0.000    
  23    10.00       9.869       9.755       9.683       9.609       9.505       9.389       9.306       9.171       8.961    
        8.635       8.312       8.108       7.842       7.483       7.180       6.983       6.813       6.610       6.359    
        6.130       5.919       5.675       5.390       5.181       5.226       5.362       5.452       5.532       5.586    
        5.606       5.585       5.522       5.416       5.262       5.045       4.664       4.075       3.485       3.103    
        2.741       2.229       1.559       1.010      0.7346      0.5493      0.3929      0.2318      9.2238E-02   0.000    
  24    10.00       9.848       9.766       9.680       9.575       9.465       9.377       9.284       9.154       8.875    
        8.569       8.330       8.100       7.745       7.350       7.132       6.966       6.798       6.568       6.332    
        6.128       5.860       5.470       4.929       4.269       4.541       4.946       5.228       5.395       5.481    
        5.520       5.505       5.453       5.337       5.166       4.894       4.412       3.854       3.411       3.012    
        2.568       1.997       1.399      0.9787      0.7358      0.5351      0.3584      0.2511      0.1233       0.000    
  25    10.00       9.866       9.781       9.672       9.563       9.462       9.374       9.289       9.093       8.822    
        8.586       8.345       8.042       7.652       7.360       7.165       6.976       6.775       6.564       6.362    
        6.127       5.870       5.314       4.284       2.448       3.818       4.562       5.004       5.277       5.417    
        5.464       5.454       5.392       5.233       4.999       4.629       4.175       3.737       3.357       2.889    
        2.353       1.809       1.304      0.9698      0.7627      0.5560      0.3776      0.2630      0.1637       0.000    
  26    10.00       9.883       9.802       9.687       9.569       9.478       9.383       9.257       9.063       8.875    
        8.654       8.324       7.954       7.638       7.417       7.227       7.009       6.762       6.557       6.388    
        6.193       5.940       5.460       4.704       3.865       4.222       4.673       5.004       5.257       5.406    
        5.439       5.416       5.317       5.126       4.867       4.514       4.013       3.597       3.241       2.675    
        2.069       1.592       1.291       1.059      0.8224      0.6002      0.4116      0.2856      0.1669       0.000    
  27    10.00       9.907       9.806       9.703       9.601       9.493       9.387       9.260       9.100       8.928    
        8.649       8.277       7.953       7.691       7.506       7.288       7.003       6.746       6.587       6.448    
        6.296       6.063       5.700       5.255       4.805       4.779       4.953       5.166       5.351       5.432    
        5.433       5.393       5.277       5.068       4.765       4.287       3.816       3.473       2.933       2.339    
        1.869       1.563       1.336       1.133      0.8990      0.6550      0.4471      0.3144      0.1983       0.000    
  28    10.00       9.913       9.830       9.736       9.636       9.522       9.405       9.282       9.143       8.941    
        8.615       8.291       8.009       7.753       7.557       7.343       7.111       6.864       6.640       6.497    
        6.376       6.210       5.977       5.655       5.382       5.224       5.261       5.395       5.456       5.472    
        5.441       5.376       5.231       4.966       4.565       4.070       3.664       3.183       2.621       2.200    
        1.866       1.606       1.384       1.172      0.9445      0.7148      0.5072      0.3579      0.2046       0.000    
  29    10.00       9.919       9.838       9.764       9.666       9.562       9.449       9.322       9.170       8.900    
        8.596       8.321       8.054       7.838       7.615       7.389       7.179       6.981       6.767       6.579    
        6.449       6.322       6.168       5.978       5.720       5.594       5.580       5.585       5.583       5.533    
        5.455       5.328       5.153       4.810       4.320       3.885       3.476       2.974       2.526       2.217    
        1.946       1.662       1.410       1.207       1.002      0.7559      0.5359      0.3740      0.2074       0.000    
  30    10.00       9.930       9.862       9.797       9.710       9.608       9.505       9.362       9.157       8.912    
        8.604       8.307       8.087       7.872       7.661       7.457       7.287       7.105       6.897       6.698    
        6.539       6.432       6.302       6.174       6.034       5.918       5.874       5.782       5.713       5.600    
        5.443       5.227       4.981       4.618       4.235       3.828       3.391       2.922       2.582       2.302    
        1.980       1.695       1.476       1.244       1.000      0.7822      0.5712      0.3972      0.2232       0.000    
  31    10.00       9.944       9.888       9.827       9.761       9.679       9.563       9.385       9.151       8.892    
        8.597       8.331       8.131       7.921       7.725       7.537       7.369       7.227       7.019       6.820    
        6.675       6.560       6.459       6.358       6.281       6.172       6.056       5.950       5.810       5.633    
        5.381       5.105       4.852       4.559       4.193       3.762       3.319       2.936       2.696       2.430    
        2.072       1.758       1.509       1.274       1.047      0.8228      0.6053      0.4180      0.2164       0.000    
  32    10.00       9.952       9.912       9.858       9.796       9.718       9.594       9.389       9.177       8.932    
        8.628       8.382       8.194       7.978       7.770       7.617       7.471       7.303       7.137       6.942    
        6.792       6.671       6.577       6.487       6.399       6.313       6.177       6.037       5.856       5.611    
        5.322       5.048       4.787       4.506       4.147       3.759       3.412       3.085       2.811       2.505    
        2.174       1.865       1.601       1.331       1.084      0.8948      0.6674      0.4101      0.1831       0.000    
  33    10.00       9.959       9.928       9.882       9.819       9.736       9.574       9.373       9.202       8.982    
        8.705       8.472       8.250       8.008       7.825       7.697       7.571       7.399       7.216       7.048    
        6.882       6.758       6.642       6.544       6.467       6.381       6.233       6.038       5.843       5.609    
        5.320       5.073       4.800       4.455       4.119       3.775       3.494       3.236       2.924       2.587    
        2.301       2.008       1.719       1.440       1.180      0.9687      0.7140      0.4121      0.1791       0.000    
  34    10.00       9.966       9.942       9.904       9.821       9.699       9.550       9.410       9.233       9.017    
        8.781       8.528       8.280       8.043       7.893       7.789       7.653       7.489       7.283       7.120    
        6.970       6.815       6.690       6.594       6.516       6.403       6.229       6.043       5.835       5.562    
        5.307       5.107       4.838       4.504       4.171       3.854       3.588       3.332       3.010       2.705    
        2.450       2.168       1.852       1.574       1.310       1.067      0.7636      0.4636      0.2431       0.000    
  35    10.00       9.972       9.942       9.887       9.786       9.666       9.560       9.439       9.296       9.063    
        8.805       8.552       8.301       8.107       7.975       7.864       7.720       7.546       7.346       7.153    
        6.998       6.852       6.725       6.633       6.547       6.432       6.242       6.020       5.776       5.491    
        5.298       5.088       4.816       4.571       4.293       3.960       3.666       3.451       3.147       2.823    
        2.576       2.287       1.971       1.697       1.424       1.158      0.8752      0.5800      0.2869       0.000    
  36    10.00       9.965       9.918       9.858       9.764       9.653       9.564       9.460       9.306       9.082    
        8.800       8.533       8.355       8.208       8.077       7.936       7.766       7.590       7.377       7.124    
        6.954       6.843       6.733       6.655       6.569       6.424       6.210       5.966       5.666       5.408    
        5.243       5.073       4.838       4.603       4.370       4.073       3.781       3.552       3.281       2.927    
        2.657       2.335       2.019       1.810       1.544       1.248      0.9654      0.6570      0.3214       0.000    
  37    10.00       9.947       9.897       9.836       9.744       9.648       9.547       9.448       9.307       9.046    
        8.753       8.548       8.444       8.303       8.141       8.000       7.791       7.572       7.303       7.045    
        6.932       6.838       6.732       6.647       6.545       6.368       6.150       5.831       5.556       5.387    
        5.244       5.061       4.831       4.645       4.409       4.128       3.899       3.680       3.376       2.987    
        2.632       2.330       2.111       1.894       1.628       1.347       1.064      0.7245      0.3978       0.000    
  38    10.00       9.940       9.875       9.812       9.731       9.639       9.533       9.426       9.263       9.018    
        8.800       8.638       8.505       8.377       8.202       7.974       7.739       7.485       7.184       7.012    
        6.920       6.798       6.689       6.618       6.501       6.302       5.981       5.681       5.537       5.408    
        5.257       5.064       4.856       4.672       4.441       4.185       3.999       3.775       3.387       2.959    
        2.651       2.399       2.182       1.958       1.722       1.437       1.155      0.8379      0.4141       0.000    
  39    10.00       9.923       9.859       9.802       9.725       9.621       9.508       9.397       9.245       9.045    
        8.873       8.750       8.601       8.424       8.172       7.887       7.622       7.326       7.112       7.000    
        6.863       6.721       6.638       6.569       6.456       6.190       5.867       5.686       5.555       5.422    
        5.252       5.070       4.869       4.685       4.510       4.301       4.055       3.785       3.402       3.004    
        2.679       2.419       2.247       2.060       1.794       1.512       1.226      0.8721      0.4086       0.000    
  40    10.00       9.914       9.854       9.796       9.716       9.608       9.498       9.389       9.253       9.087    
        8.946       8.837       8.654       8.379       8.063       7.777       7.496       7.243       7.087       6.948    
        6.789       6.666       6.595       6.509       6.358       6.120       5.902       5.722       5.575       5.437    
        5.270       5.075       4.885       4.732       4.578       4.367       4.083       3.800       3.412       2.984    
        2.680       2.474       2.286       2.125       1.846       1.537       1.275      0.8746      0.4072       0.000    
  41    10.00       9.922       9.852       9.782       9.696       9.611       9.519       9.418       9.284       9.132    
        8.998       8.866       8.628       8.302       7.976       7.709       7.434       7.192       7.039       6.888    
        6.729       6.621       6.543       6.440       6.283       6.105       5.959       5.784       5.600       5.438    
        5.279       5.102       4.922       4.788       4.625       4.414       4.130       3.740       3.294       2.965    
        2.744       2.545       2.350       2.126       1.836       1.540       1.316      0.9318      0.4225       0.000    
  42    10.00       9.922       9.842       9.781       9.718       9.639       9.541       9.426       9.311       9.195    
        9.023       8.796       8.520       8.210       7.907       7.663       7.394       7.159       6.994       6.824    
        6.676       6.580       6.493       6.400       6.258       6.134       6.011       5.813       5.607       5.461    
        5.331       5.138       4.945       4.815       4.664       4.439       4.090       3.630       3.222       2.977    
        2.811       2.632       2.384       2.087       1.808       1.577       1.344      0.9827      0.4849       0.000    
  43    10.00       9.915       9.848       9.795       9.745       9.669       9.573       9.463       9.336       9.155    
        8.933       8.700       8.442       8.118       7.846       7.621       7.379       7.142       6.934       6.775    
        6.642       6.546       6.472       6.396       6.276       6.148       6.022       5.817       5.638       5.531    
        5.372       5.164       4.977       4.844       4.668       4.376       3.973       3.537       3.240       3.052    
        2.875       2.670       2.365       2.060       1.814       1.591       1.390      0.9966      0.4554       0.000    
  44    10.00       9.914       9.856       9.809       9.748       9.692       9.612       9.465       9.276       9.068    
        8.882       8.645       8.334       8.063       7.846       7.587       7.323       7.072       6.866       6.727    
        6.629       6.547       6.473       6.394       6.290       6.159       5.989       5.820       5.699       5.571    
        5.429       5.247       5.034       4.831       4.615       4.289       3.866       3.508       3.278       3.096    
        2.918       2.675       2.380       2.116       1.852       1.613       1.368      0.8997      0.4138       0.000    
  45    10.00       9.924       9.870       9.808       9.749       9.700       9.569       9.395       9.204       9.025    
        8.871       8.556       8.232       8.035       7.802       7.514       7.227       6.996       6.829       6.718    
        6.644       6.566       6.485       6.391       6.277       6.148       6.005       5.875       5.768       5.635    
        5.470       5.283       5.063       4.806       4.549       4.198       3.801       3.519       3.344       3.157    
        2.919       2.641       2.388       2.147       1.914       1.675       1.277      0.7996      0.4024       0.000    
  46    10.00       9.938       9.881       9.808       9.741       9.643       9.501       9.369       9.209       9.017    
        8.763       8.462       8.203       7.953       7.704       7.426       7.159       6.988       6.851       6.746    
        6.670       6.595       6.492       6.375       6.264       6.156       6.043       5.923       5.816       5.699    
        5.550       5.352       5.102       4.798       4.431       4.066       3.773       3.573       3.391       3.196    
        2.914       2.618       2.366       2.176       1.953       1.642       1.189      0.7637      0.3765       0.000    
  47    10.00       9.950       9.895       9.823       9.708       9.579       9.458       9.354       9.207       8.954    
        8.649       8.373       8.148       7.939       7.675       7.372       7.137       6.975       6.865       6.777    
        6.695       6.607       6.499       6.376       6.268       6.183       6.089       5.971       5.848       5.733    
        5.603       5.437       5.106       4.679       4.321       4.059       3.813       3.641       3.479       3.210    
        2.867       2.553       2.325       2.193       1.947       1.566       1.124      0.7367      0.3722       0.000    
  48    10.00       9.955       9.898       9.792       9.673       9.562       9.440       9.335       9.186       8.901    
        8.567       8.337       8.152       7.896       7.588       7.316       7.139       6.976       6.867       6.797    
        6.715       6.609       6.492       6.380       6.291       6.223       6.139       6.009       5.866       5.742    
        5.606       5.406       5.061       4.707       4.388       4.098       3.879       3.703       3.496       3.153    
        2.784       2.543       2.362       2.129       1.805       1.468       1.089      0.7420      0.3928       0.000    
  49    10.00       9.953       9.867       9.764       9.674       9.555       9.437       9.326       9.138       8.836    
        8.538       8.317       8.086       7.828       7.595       7.341       7.095       6.943       6.877       6.812    
        6.734       6.612       6.477       6.379       6.311       6.261       6.165       6.015       5.864       5.752    
        5.604       5.342       5.037       4.787       4.519       4.200       3.916       3.699       3.455       3.088    
        2.791       2.579       2.329       1.993       1.706       1.402       1.071      0.7542      0.3841       0.000    
  50    10.00       9.940       9.846       9.752       9.680       9.569       9.437       9.296       9.093       8.854    
        8.553       8.257       8.016       7.810       7.624       7.339       7.058       6.944       6.885       6.822    
        6.747       6.610       6.466       6.377       6.323       6.277       6.170       6.008       5.864       5.750    
        5.589       5.313       5.078       4.863       4.574       4.256       3.969       3.680       3.330       3.005    
        2.847       2.624       2.259       1.922       1.681       1.391       1.104      0.7366      0.3026       0.000    

 HEAD WILL BE SAVED ON UNIT   51 AT END OF TIME STEP  49, STRESS PERIOD    2

 DRAWDOWN WILL BE SAVED ON UNIT   52 AT END OF TIME STEP  49, STRESS PERIOD    2
1
  VOLUMETRIC BUDGET FOR ENTIRE MODEL AT END OF TIME STEP 49 IN STRESS PERIOD   2
  ------------------------------------------------------------------------------

     CUMULATIVE VOLUMES      L**3       RATES FOR THIS TIME STEP      L**3/T
     ------------------                 ------------------------

           IN:                                      IN:
           ---                                      ---
             STORAGE =       23982.0684               STORAGE =         461.7695
       CONSTANT HEAD =       27500.9805         CONSTANT HEAD =         576.8712
               WELLS =           0.0000                 WELLS =           0.0000

            TOTAL IN =       51483.0469              TOTAL IN =        1038.6407

          OUT:                                     OUT:
          ----                                     ----
             STORAGE =       9.3745E-03               STORAGE =           0.0000
       CONSTANT HEAD =       26983.0312         CONSTANT HEAD =         538.6407
               WELLS =       24500.0000                 WELLS =         500.0000

           TOTAL OUT =       51483.0391             TOTAL OUT =        1038.6407

            IN - OUT =       7.8125E-03              IN - OUT =           0.0000

 PERCENT DISCREPANCY =           0.00     PERCENT DISCREPANCY =           0.00






          TIME SUMMARY AT END OF TIME STEP  49 IN STRESS PERIOD    2
                    SECONDS     MINUTES      HOURS       DAYS        YEARS
                    -----------------------------------------------------------
   TIME STEP LENGTH  86400.      1440.0      24.000      1.0000     2.73785E-03
 STRESS PERIOD TIME 4.23360E+06  70560.      1176.0      49.000     0.13415    
         TOTAL TIME 4.32000E+06  72000.      1200.0      50.000     0.13689    
1
 
 SOLVING FOR HEAD 

 OUTPUT CONTROL FOR STRESS PERIOD    2   TIME STEP  50
    SAVE HEAD FOR ALL LAYERS
    SAVE DRAWDOWN FOR ALL LAYERS
    SAVE BUDGET
    PRINT HEAD FOR ALL LAYERS
    PRINT BUDGET
 UBDSV1 SAVING "         STORAGE" ON UNIT  53 AT TIME STEP 50, STRESS PERIOD   2
 UBDSV2 SAVING "   CONSTANT HEAD" ON UNIT  53 AT TIME STEP 50, STRESS PERIOD   2
 UBDSV1 SAVING "FLOW RIGHT FACE " ON UNIT  53 AT TIME STEP 50, STRESS PERIOD   2
 UBDSV1 SAVING "FLOW FRONT FACE " ON UNIT  53 AT TIME STEP 50, STRESS PERIOD   2
1
              HEAD IN LAYER   1 AT END OF TIME STEP  50 IN STRESS PERIOD    2
  ---------------------------------------------------------------------------

            1           2           3           4           5           6           7           8           9          10
           11          12          13          14          15          16          17          18          19          20
           21          22          23          24          25          26          27          28          29          30
           31          32          33          34          35          36          37          38          39          40
           41          42          43          44          45          46          47          48          49          50
 ........................................................................................................................
   1    10.00       9.957       9.898       9.839       9.790       9.730       9.671       9.609       9.526       9.459    
        9.419       9.378       9.334       9.289       9.218       9.140       9.055       8.989       8.959       8.926    
        8.885       8.850       8.813       8.768       8.705       8.595       8.462       8.333       8.184       8.037    
        7.827       7.493       7.100       6.685       6.221       5.792       5.428       5.090       4.628       4.126    
        3.699       3.277       2.695       2.143       1.756       1.369       1.044      0.8339      0.5531       0.000    
   2    10.00       9.956       9.903       9.844       9.792       9.737       9.671       9.590       9.511       9.458    
        9.423       9.386       9.352       9.297       9.215       9.135       9.057       8.992       8.959       8.922    
        8.880       8.853       8.824       8.776       8.703       8.598       8.465       8.330       8.191       8.044    
        7.816       7.472       7.059       6.590       6.122       5.708       5.382       5.051       4.582       4.112    
        3.681       3.173       2.648       2.211       1.827       1.466       1.095      0.7920      0.4229       0.000    
   3    10.00       9.952       9.901       9.847       9.794       9.730       9.649       9.572       9.522       9.474    
        9.432       9.401       9.367       9.315       9.234       9.133       9.051       8.997       8.957       8.919    
        8.884       8.855       8.826       8.766       8.688       8.582       8.455       8.353       8.206       8.032    
        7.739       7.339       6.899       6.444       6.013       5.628       5.337       4.995       4.489       4.031    
        3.672       3.210       2.726       2.307       1.908       1.543       1.105      0.6795      0.2989       0.000    
   4    10.00       9.956       9.904       9.845       9.780       9.706       9.628       9.571       9.528       9.483    
        9.447       9.421       9.383       9.327       9.252       9.142       9.051       9.001       8.957       8.921    
        8.882       8.848       8.811       8.747       8.668       8.564       8.441       8.327       8.213       7.994    
        7.616       7.127       6.656       6.308       5.986       5.614       5.240       4.807       4.379       4.045    
        3.726       3.317       2.833       2.419       2.001       1.559       1.054      0.6034      0.2811       0.000    
   5    10.00       9.953       9.898       9.831       9.763       9.695       9.627       9.578       9.533       9.495    
        9.463       9.435       9.391       9.326       9.238       9.138       9.060       9.005       8.960       8.911    
        8.865       8.830       8.784       8.718       8.644       8.525       8.403       8.305       8.190       7.911    
        7.414       6.877       6.488       6.224       5.933       5.557       5.131       4.704       4.401       4.118    
        3.830       3.408       2.904       2.542       2.117       1.539      0.9589      0.5569      0.2802       0.000    
   6    10.00       9.941       9.876       9.824       9.760       9.689       9.632       9.588       9.542       9.506    
        9.477       9.442       9.386       9.310       9.235       9.152       9.067       8.999       8.942       8.885    
        8.845       8.807       8.764       8.695       8.585       8.472       8.380       8.274       8.082       7.680    
        7.127       6.641       6.344       6.146       5.911       5.498       5.037       4.698       4.475       4.228    
        3.949       3.568       3.067       2.618       2.091       1.472      0.8599      0.4898      0.2737       0.000    
   7    10.00       9.925       9.864       9.812       9.751       9.700       9.645       9.600       9.561       9.523    
        9.485       9.435       9.367       9.293       9.225       9.157       9.063       8.971       8.909       8.863    
        8.823       8.782       8.738       8.645       8.533       8.442       8.342       8.171       7.846       7.335    
        6.812       6.434       6.250       6.097       5.798       5.390       5.086       4.792       4.551       4.379    
        4.097       3.704       3.168       2.586       1.937       1.227      0.7207      0.4973      0.2519       0.000    
   8    10.00       9.920       9.863       9.808       9.754       9.708       9.661       9.618       9.580       9.543    
        9.488       9.416       9.344       9.279       9.215       9.131       9.019       8.933       8.886       8.842    
        8.795       8.760       8.688       8.588       8.488       8.381       8.192       7.921       7.476       7.035    
        6.646       6.348       6.209       6.022       5.685       5.371       5.120       4.904       4.711       4.509    
        4.217       3.732       3.113       2.449       1.710       1.108      0.7627      0.4878      0.2248       0.000    
   9    10.00       9.924       9.860       9.806       9.767       9.728       9.683       9.640       9.597       9.555    
        9.485       9.396       9.322       9.256       9.179       9.085       8.984       8.908       8.859       8.812    
        8.770       8.713       8.613       8.520       8.417       8.268       7.993       7.586       7.148       6.831    
        6.526       6.309       6.153       5.904       5.595       5.353       5.174       5.010       4.845       4.626    
        4.264       3.758       3.100       2.358       1.677       1.147      0.7781      0.4839      0.2399       0.000    
  10    10.00       9.922       9.858       9.813       9.778       9.741       9.702       9.664       9.614       9.548    
        9.462       9.373       9.301       9.228       9.148       9.038       8.937       8.876       8.832       8.785    
        8.742       8.649       8.541       8.439       8.296       8.072       7.663       7.223       6.878       6.640    
        6.458       6.280       6.072       5.818       5.555       5.372       5.239       5.104       4.920       4.665    
        4.277       3.722       3.018       2.355       1.817       1.314      0.8333      0.5138      0.2708       0.000    
  11    10.00       9.912       9.862       9.825       9.790       9.758       9.722       9.672       9.601       9.527    
        9.441       9.354       9.284       9.188       9.078       8.982       8.909       8.851       8.808       8.756    
        8.678       8.558       8.403       8.252       8.003       7.669       7.307       7.015       6.738       6.566    
        6.413       6.182       5.947       5.758       5.584       5.450       5.317       5.143       4.925       4.627    
        4.263       3.772       3.060       2.454       1.976       1.494      0.9601      0.5091      0.2044       0.000    
  12    10.00       9.920       9.870       9.831       9.802       9.768       9.729       9.661       9.577       9.501    
        9.420       9.333       9.239       9.123       9.032       8.949       8.874       8.825       8.770       8.690    
        8.537       8.333       8.116       7.891       7.582       7.327       7.136       6.837       6.609       6.474    
        6.311       6.096       5.910       5.751       5.638       5.517       5.358       5.162       4.902       4.589    
        4.229       3.750       3.096       2.555       2.122       1.600       1.010      0.4816      0.1601       0.000    
  13    10.00       9.937       9.892       9.850       9.812       9.773       9.716       9.632       9.545       9.470    
        9.384       9.297       9.199       9.079       8.974       8.892       8.838       8.776       8.697       8.512    
        8.233       7.985       7.749       7.467       7.227       7.112       6.877       6.606       6.488       6.376    
        6.202       6.017       5.883       5.774       5.681       5.570       5.389       5.144       4.889       4.566    
        4.208       3.719       3.044       2.539       2.137       1.566      0.9408      0.4356      0.1259       0.000    
  14    10.00       9.954       9.913       9.868       9.823       9.764       9.681       9.593       9.515       9.429    
        9.345       9.264       9.147       9.013       8.918       8.851       8.764       8.670       8.484       8.158    
        7.859       7.638       7.328       7.097       6.988       6.859       6.618       6.460       6.344       6.236    
        6.089       5.974       5.894       5.805       5.709       5.594       5.392       5.123       4.849       4.520    
        4.136       3.545       2.909       2.501       2.009       1.460      0.9280      0.3979      0.1024       0.000    
  15    10.00       9.964       9.922       9.878       9.826       9.737       9.635       9.557       9.479       9.397    
        9.332       9.239       9.085       8.939       8.851       8.736       8.618       8.497       8.185       7.802    
        7.555       7.240       6.957       6.870       6.803       6.634       6.441       6.287       6.204       6.125    
        6.036       5.970       5.908       5.833       5.731       5.591       5.357       5.051       4.763       4.459    
        4.042       3.467       2.917       2.367       1.772       1.282      0.7980      0.3507      0.1052       0.000    
  16    10.00       9.973       9.933       9.880       9.799       9.690       9.602       9.539       9.469       9.384    
        9.297       9.164       8.986       8.846       8.719       8.582       8.501       8.259       7.805       7.450    
        7.200       6.890       6.784       6.731       6.607       6.395       6.238       6.167       6.140       6.086    
        6.021       5.968       5.918       5.840       5.717       5.543       5.262       4.984       4.756       4.429    
        3.954       3.334       2.701       2.090       1.585       1.099      0.6800      0.3329      0.1123       0.000    
  17    10.00       9.973       9.931       9.861       9.761       9.652       9.578       9.521       9.443       9.348    
        9.205       9.034       8.874       8.720       8.563       8.431       8.232       7.825       7.400       7.154    
        6.908       6.717       6.633       6.513       6.318       6.160       6.119       6.110       6.094       6.047    
        5.997       5.956       5.911       5.839       5.665       5.425       5.183       4.986       4.769       4.357    
        3.722       3.089       2.486       1.886       1.355      0.8895      0.5700      0.2977      0.1223       0.000    
  18    10.00       9.967       9.918       9.835       9.710       9.623       9.564       9.486       9.397       9.265    
        9.091       8.939       8.777       8.571       8.364       8.145       7.854       7.439       7.120       6.904    
        6.703       6.543       6.416       6.243       6.110       6.069       6.058       6.055       6.032       5.998    
        5.969       5.937       5.885       5.763       5.581       5.377       5.172       4.996       4.692       4.141    
        3.491       2.818       2.173       1.680       1.258      0.8339      0.4896      0.2463      0.1180       0.000    
  19    10.00       9.960       9.905       9.785       9.661       9.609       9.545       9.448       9.338       9.196    
        9.038       8.894       8.660       8.346       8.100       7.874       7.520       7.141       6.926       6.759    
        6.551       6.357       6.217       6.084       6.019       6.005       6.000       5.981       5.953       5.942    
        5.927       5.900       5.826       5.707       5.553       5.355       5.168       4.914       4.394       3.821    
        3.296       2.600       1.986       1.596       1.176      0.7524      0.4421      0.2508      0.1284       0.000    
  20    10.00       9.951       9.859       9.736       9.646       9.590       9.520       9.417       9.294       9.166    
        9.002       8.784       8.434       8.121       7.902       7.620       7.269       7.061       6.864       6.632    
        6.403       6.229       6.083       5.989       5.942       5.918       5.890       5.883       5.869       5.873    
        5.871       5.848       5.770       5.658       5.500       5.328       5.095       4.632       4.068       3.610    
        3.040       2.398       1.939       1.561       1.137      0.6676      0.3860      0.2610      0.1345       0.000    
  21    10.00       9.919       9.821       9.718       9.629       9.571       9.495       9.375       9.253       9.131    
        8.913       8.579       8.221       7.984       7.738       7.441       7.179       6.982       6.745       6.499    
        6.280       6.109       5.982       5.883       5.817       5.768       5.752       5.761       5.764       5.780    
        5.796       5.766       5.687       5.580       5.421       5.230       4.866       4.377       3.929       3.372    
        2.831       2.325       1.937       1.554      0.9574      0.5404      0.3907      0.2948      0.1413       0.000    
  22    10.00       9.898       9.781       9.688       9.618       9.548       9.441       9.330       9.222       9.054    
        8.774       8.395       8.110       7.895       7.619       7.314       7.062       6.853       6.636       6.403    
        6.185       6.004       5.834       5.682       5.596       5.577       5.595       5.611       5.649       5.673    
        5.693       5.659       5.593       5.482       5.320       5.130       4.757       4.283       3.697       3.157    
        2.765       2.360       1.893       1.252      0.7464      0.5386      0.4095      0.2726      0.1008       0.000    
  23    10.00       9.868       9.754       9.681       9.607       9.502       9.386       9.302       9.166       8.955    
        8.626       8.302       8.096       7.829       7.469       7.165       6.967       6.797       6.593       6.343    
        6.113       5.901       5.658       5.372       5.164       5.208       5.344       5.434       5.514       5.569    
        5.589       5.568       5.506       5.402       5.249       5.034       4.656       4.069       3.481       3.100    
        2.739       2.228       1.558       1.009      0.7344      0.5492      0.3928      0.2317      9.2216E-02   0.000    
  24    10.00       9.847       9.765       9.678       9.572       9.462       9.373       9.280       9.148       8.868    
        8.560       8.320       8.088       7.732       7.336       7.117       6.950       6.782       6.551       6.315    
        6.111       5.843       5.452       4.911       4.250       4.522       4.928       5.210       5.377       5.463    
        5.503       5.488       5.438       5.323       5.153       4.883       4.404       3.849       3.407       3.009    
        2.566       1.996       1.398      0.9784      0.7356      0.5349      0.3583      0.2511      0.1232       0.000    
  25    10.00       9.865       9.780       9.670       9.560       9.459       9.370       9.284       9.087       8.815    
        8.577       8.335       8.031       7.639       7.345       7.150       6.961       6.759       6.548       6.345    
        6.110       5.853       5.297       4.266       2.429       3.799       4.543       4.986       5.259       5.399    
        5.447       5.437       5.377       5.219       4.987       4.619       4.168       3.732       3.353       2.887    
        2.352       1.808       1.304      0.9695      0.7625      0.5559      0.3775      0.2629      0.1636       0.000    
  26    10.00       9.883       9.801       9.685       9.566       9.475       9.380       9.253       9.058       8.868    
        8.646       8.314       7.942       7.625       7.403       7.213       6.994       6.746       6.541       6.371    
        6.176       5.923       5.443       4.686       3.846       4.203       4.654       4.985       5.238       5.387    
        5.422       5.400       5.302       5.113       4.856       4.505       4.007       3.592       3.238       2.673    
        2.068       1.592       1.291       1.059      0.8221      0.6000      0.4115      0.2856      0.1669       0.000    
  27    10.00       9.906       9.805       9.701       9.599       9.490       9.384       9.255       9.094       8.921    
        8.640       8.267       7.941       7.678       7.492       7.274       6.988       6.730       6.571       6.432    
        6.279       6.046       5.682       5.237       4.787       4.760       4.934       5.147       5.332       5.414    
        5.415       5.377       5.262       5.055       4.754       4.279       3.810       3.469       2.931       2.337    
        1.868       1.562       1.336       1.132      0.8988      0.6549      0.4470      0.3143      0.1983       0.000    
  28    10.00       9.913       9.829       9.735       9.634       9.519       9.402       9.278       9.138       8.935    
        8.607       8.282       7.998       7.740       7.544       7.329       7.097       6.849       6.624       6.480    
        6.359       6.193       5.960       5.638       5.364       5.205       5.243       5.376       5.438       5.454    
        5.424       5.360       5.217       4.954       4.556       4.063       3.659       3.180       2.619       2.199    
        1.865       1.605       1.384       1.172      0.9443      0.7146      0.5071      0.3579      0.2045       0.000    
  29    10.00       9.919       9.837       9.762       9.664       9.560       9.446       9.319       9.165       8.894    
        8.587       8.312       8.043       7.826       7.603       7.375       7.165       6.966       6.752       6.563    
        6.433       6.306       6.152       5.961       5.702       5.576       5.562       5.567       5.566       5.516    
        5.439       5.313       5.140       4.800       4.313       3.880       3.472       2.972       2.524       2.216    
        1.945       1.661       1.410       1.206       1.002      0.7557      0.5358      0.3739      0.2074       0.000    
  30    10.00       9.929       9.861       9.796       9.708       9.605       9.503       9.358       9.152       8.905    
        8.596       8.297       8.077       7.861       7.649       7.444       7.274       7.091       6.882       6.683    
        6.523       6.416       6.286       6.157       6.017       5.901       5.857       5.765       5.696       5.585    
        5.429       5.215       4.971       4.611       4.230       3.823       3.388       2.920       2.581       2.301    
        1.979       1.694       1.475       1.244      0.9998      0.7820      0.5711      0.3971      0.2231       0.000    
  31    10.00       9.944       9.888       9.826       9.760       9.677       9.561       9.382       9.147       8.886    
        8.589       8.322       8.121       7.910       7.713       7.525       7.356       7.214       7.005       6.805    
        6.660       6.545       6.443       6.342       6.265       6.157       6.040       5.934       5.795       5.619    
        5.369       5.095       4.844       4.552       4.189       3.759       3.317       2.934       2.695       2.429    
        2.071       1.758       1.508       1.273       1.047      0.8227      0.6052      0.4179      0.2164       0.000    
  32    10.00       9.951       9.911       9.857       9.795       9.716       9.592       9.386       9.173       8.927    
        8.621       8.374       8.185       7.968       7.759       7.605       7.459       7.290       7.123       6.928    
        6.777       6.656       6.562       6.473       6.385       6.298       6.162       6.023       5.842       5.599    
        5.312       5.040       4.781       4.501       4.143       3.756       3.410       3.084       2.809       2.504    
        2.174       1.864       1.601       1.331       1.084      0.8946      0.6673      0.4101      0.1831       0.000    
  33    10.00       9.959       9.927       9.881       9.818       9.734       9.572       9.370       9.197       8.977    
        8.698       8.464       8.241       7.998       7.815       7.686       7.559       7.387       7.203       7.035    
        6.868       6.744       6.628       6.530       6.453       6.367       6.219       6.025       5.832       5.599    
        5.312       5.066       4.795       4.450       4.116       3.773       3.492       3.234       2.923       2.587    
        2.301       2.008       1.719       1.440       1.180      0.9686      0.7140      0.4120      0.1791       0.000    
  34    10.00       9.966       9.942       9.903       9.820       9.697       9.548       9.407       9.229       9.012    
        8.775       8.521       8.271       8.034       7.884       7.779       7.643       7.478       7.271       7.108    
        6.958       6.802       6.678       6.581       6.503       6.391       6.217       6.032       5.826       5.554    
        5.300       5.101       4.833       4.500       4.168       3.852       3.586       3.330       3.009       2.704    
        2.449       2.167       1.852       1.573       1.310       1.067      0.7636      0.4636      0.2431       0.000    
  35    10.00       9.972       9.942       9.887       9.785       9.665       9.558       9.437       9.293       9.059    
        8.799       8.546       8.294       8.099       7.966       7.855       7.710       7.536       7.335       7.142    
        6.987       6.841       6.714       6.622       6.536       6.421       6.231       6.011       5.768       5.485    
        5.293       5.084       4.813       4.569       4.291       3.958       3.665       3.450       3.147       2.822    
        2.576       2.287       1.971       1.697       1.423       1.157      0.8752      0.5800      0.2869       0.000    
  36    10.00       9.965       9.918       9.857       9.763       9.651       9.562       9.458       9.303       9.078    
        8.795       8.527       8.348       8.200       8.069       7.928       7.757       7.580       7.367       7.115    
        6.945       6.834       6.724       6.646       6.559       6.414       6.202       5.958       5.661       5.404    
        5.240       5.070       4.836       4.601       4.369       4.072       3.780       3.551       3.281       2.927    
        2.656       2.335       2.019       1.810       1.544       1.248      0.9654      0.6569      0.3214       0.000    
  37    10.00       9.947       9.896       9.836       9.744       9.646       9.545       9.446       9.304       9.042    
        8.748       8.543       8.438       8.296       8.133       7.992       7.783       7.564       7.294       7.037    
        6.924       6.830       6.724       6.639       6.537       6.360       6.143       5.826       5.553       5.384    
        5.241       5.059       4.829       4.644       4.407       4.127       3.898       3.679       3.375       2.986    
        2.632       2.330       2.111       1.894       1.627       1.347       1.064      0.7245      0.3978       0.000    
  38    10.00       9.939       9.875       9.811       9.731       9.638       9.531       9.424       9.261       9.015    
        8.796       8.634       8.500       8.371       8.196       7.967       7.732       7.478       7.177       7.005    
        6.913       6.791       6.682       6.611       6.495       6.296       5.976       5.678       5.534       5.406    
        5.255       5.062       4.854       4.671       4.440       4.184       3.998       3.775       3.387       2.958    
        2.651       2.399       2.181       1.957       1.722       1.437       1.155      0.8379      0.4140       0.000    
  39    10.00       9.922       9.859       9.802       9.724       9.619       9.506       9.395       9.242       9.042    
        8.870       8.746       8.596       8.419       8.167       7.881       7.616       7.320       7.106       6.995    
        6.857       6.716       6.633       6.564       6.451       6.186       5.864       5.684       5.553       5.420    
        5.250       5.068       4.868       4.684       4.509       4.300       4.054       3.784       3.402       3.003    
        2.679       2.418       2.247       2.060       1.794       1.512       1.226      0.8721      0.4086       0.000    
  40    10.00       9.914       9.853       9.795       9.715       9.607       9.497       9.387       9.251       9.084    
        8.943       8.834       8.650       8.375       8.059       7.772       7.492       7.238       7.082       6.943    
        6.785       6.661       6.591       6.505       6.354       6.117       5.900       5.720       5.573       5.435    
        5.268       5.073       4.884       4.731       4.577       4.366       4.082       3.800       3.411       2.984    
        2.680       2.474       2.285       2.125       1.846       1.537       1.275      0.8745      0.4071       0.000    
  41    10.00       9.922       9.852       9.782       9.696       9.610       9.518       9.416       9.282       9.130    
        8.995       8.863       8.625       8.299       7.973       7.705       7.430       7.188       7.035       6.884    
        6.725       6.618       6.539       6.437       6.281       6.103       5.957       5.782       5.598       5.437    
        5.277       5.101       4.920       4.787       4.624       4.413       4.129       3.739       3.294       2.965    
        2.744       2.545       2.349       2.126       1.836       1.540       1.316      0.9317      0.4224       0.000    
  42    10.00       9.922       9.842       9.781       9.717       9.639       9.540       9.425       9.310       9.193    
        9.021       8.794       8.518       8.207       7.904       7.660       7.391       7.155       6.991       6.821    
        6.673       6.577       6.491       6.398       6.256       6.132       6.009       5.811       5.605       5.460    
        5.329       5.137       4.944       4.814       4.663       4.438       4.090       3.629       3.222       2.976    
        2.810       2.632       2.384       2.087       1.808       1.576       1.344      0.9827      0.4848       0.000    
  43    10.00       9.915       9.848       9.795       9.744       9.669       9.572       9.462       9.335       9.154    
        8.932       8.698       8.440       8.116       7.844       7.618       7.377       7.140       6.932       6.773    
        6.639       6.544       6.470       6.394       6.274       6.146       6.020       5.816       5.636       5.529    
        5.370       5.163       4.976       4.843       4.667       4.375       3.973       3.537       3.239       3.052    
        2.875       2.670       2.365       2.060       1.814       1.590       1.390      0.9965      0.4554       0.000    
  44    10.00       9.914       9.856       9.809       9.748       9.691       9.611       9.464       9.275       9.067    
        8.880       8.644       8.332       8.061       7.844       7.585       7.321       7.070       6.864       6.725    
        6.627       6.545       6.471       6.392       6.288       6.157       5.988       5.818       5.698       5.570    
        5.427       5.246       5.033       4.830       4.615       4.289       3.866       3.507       3.277       3.096    
        2.917       2.675       2.380       2.116       1.852       1.613       1.368      0.8997      0.4137       0.000    
  45    10.00       9.924       9.869       9.808       9.749       9.699       9.569       9.394       9.203       9.024    
        8.870       8.554       8.230       8.034       7.800       7.513       7.225       6.994       6.827       6.717    
        6.642       6.564       6.483       6.389       6.275       6.146       6.003       5.873       5.767       5.634    
        5.469       5.282       5.062       4.805       4.548       4.197       3.801       3.518       3.343       3.156    
        2.918       2.640       2.388       2.147       1.914       1.675       1.277      0.7995      0.4024       0.000    
  46    10.00       9.938       9.880       9.808       9.740       9.643       9.501       9.369       9.208       9.017    
        8.762       8.461       8.202       7.952       7.703       7.424       7.158       6.987       6.850       6.744    
        6.669       6.593       6.490       6.373       6.263       6.154       6.042       5.922       5.815       5.698    
        5.549       5.351       5.101       4.797       4.430       4.066       3.772       3.573       3.390       3.195    
        2.914       2.618       2.366       2.176       1.953       1.642       1.189      0.7637      0.3765       0.000    
  47    10.00       9.950       9.895       9.823       9.707       9.579       9.457       9.354       9.206       8.953    
        8.648       8.372       8.147       7.938       7.674       7.371       7.135       6.973       6.864       6.775    
        6.694       6.605       6.497       6.375       6.266       6.181       6.088       5.970       5.846       5.732    
        5.602       5.436       5.105       4.678       4.320       4.058       3.812       3.640       3.479       3.209    
        2.866       2.553       2.325       2.193       1.947       1.566       1.124      0.7367      0.3722       0.000    
  48    10.00       9.955       9.898       9.791       9.672       9.562       9.440       9.334       9.185       8.900    
        8.566       8.336       8.151       7.895       7.587       7.314       7.137       6.974       6.865       6.796    
        6.713       6.607       6.491       6.378       6.289       6.221       6.138       6.008       5.865       5.741    
        5.605       5.405       5.060       4.706       4.387       4.098       3.878       3.702       3.496       3.153    
        2.784       2.543       2.361       2.129       1.805       1.467       1.089      0.7419      0.3928       0.000    
  49    10.00       9.953       9.867       9.764       9.674       9.555       9.436       9.325       9.138       8.835    
        8.537       8.316       8.085       7.826       7.594       7.340       7.094       6.942       6.875       6.811    
        6.732       6.611       6.475       6.378       6.310       6.259       6.164       6.013       5.863       5.751    
        5.603       5.341       5.036       4.786       4.518       4.199       3.916       3.698       3.455       3.088    
        2.791       2.579       2.329       1.993       1.706       1.402       1.071      0.7542      0.3841       0.000    
  50    10.00       9.940       9.846       9.751       9.679       9.568       9.437       9.295       9.092       8.853    
        8.552       8.256       8.015       7.809       7.622       7.337       7.057       6.942       6.884       6.821    
        6.746       6.609       6.464       6.375       6.322       6.275       6.168       6.006       5.863       5.748    
        5.587       5.312       5.077       4.863       4.573       4.256       3.968       3.680       3.330       3.005    
        2.847       2.624       2.259       1.922       1.681       1.391       1.104      0.7366      0.3026       0.000    

 HEAD WILL BE SAVED ON UNIT   51 AT END OF TIME STEP  50, STRESS PERIOD    2

 DRAWDOWN WILL BE SAVED ON UNIT   52 AT END OF TIME STEP  50, STRESS PERIOD    2
1
  VOLUMETRIC BUDGET FOR ENTIRE MODEL AT END OF TIME STEP 50 IN STRESS PERIOD   2
  ------------------------------------------------------------------------------

     CUMULATIVE VOLUMES      L**3       RATES FOR THIS TIME STEP      L**3/T
     ------------------                 ------------------------

           IN:                                      IN:
           ---                                      ---
             STORAGE =       24442.0254               STORAGE =         459.9563
       CONSTANT HEAD =       28079.5547         CONSTANT HEAD =         578.5735
               WELLS =           0.0000                 WELLS =           0.0000

            TOTAL IN =       52521.5781              TOTAL IN =        1038.5298

          OUT:                                     OUT:
          ----                                     ----
             STORAGE =       9.3745E-03               STORAGE =           0.0000
       CONSTANT HEAD =       27521.5605         CONSTANT HEAD =         538.5297
               WELLS =       25000.0000                 WELLS =         500.0000

           TOTAL OUT =       52521.5703             TOTAL OUT =        1038.5298

            IN - OUT =       7.8125E-03              IN - OUT =           0.0000

 PERCENT DISCREPANCY =           0.00     PERCENT DISCREPANCY =           0.00






          TIME SUMMARY AT END OF TIME STEP  50 IN STRESS PERIOD    2
                    SECONDS     MINUTES      HOURS       DAYS        YEARS
                    -----------------------------------------------------------
   TIME STEP LENGTH  86400.      1440.0      24.000      1.0000     2.73785E-03
 STRESS PERIOD TIME 4.32000E+06  72000.      1200.0      50.000     0.13689    
         TOTAL TIME 4.40640E+06  73440.      1224.0      51.000     0.13963    
1
 
 SOLVING FOR HEAD 

 OUTPUT CONTROL FOR STRESS PERIOD    2   TIME STEP  51
    SAVE HEAD FOR ALL LAYERS
    SAVE DRAWDOWN FOR ALL LAYERS
    SAVE BUDGET
    PRINT HEAD FOR ALL LAYERS
    PRINT BUDGET
 UBDSV1 SAVING "         STORAGE" ON UNIT  53 AT TIME STEP 51, STRESS PERIOD   2
 UBDSV2 SAVING "   CONSTANT HEAD" ON UNIT  53 AT TIME STEP 51, STRESS PERIOD   2
 UBDSV1 SAVING "FLOW RIGHT FACE " ON UNIT  53 AT TIME STEP 51, STRESS PERIOD   2
 UBDSV1 SAVING "FLOW FRONT FACE " ON UNIT  53 AT TIME STEP 51, STRESS PERIOD   2
1
              HEAD IN LAYER   1 AT END OF TIME STEP  51 IN STRESS PERIOD    2
  ---------------------------------------------------------------------------

            1           2           3           4           5           6           7           8           9          10
           11          12          13          14          15          16          17          18          19          20
           21          22          23          24          25          26          27          28          29          30
           31          32          33          34          35          36          37          38          39          40
           41          42          43          44          45          46          47          48          49          50
 ........................................................................................................................
   1    10.00       9.957       9.897       9.838       9.789       9.729       9.670       9.608       9.525       9.457    
        9.417       9.376       9.332       9.287       9.216       9.138       9.053       8.986       8.956       8.922    
        8.881       8.846       8.810       8.765       8.701       8.591       8.459       8.329       8.181       8.033    
        7.823       7.490       7.097       6.683       6.218       5.789       5.425       5.088       4.626       4.124    
        3.698       3.276       2.694       2.142       1.755       1.368       1.043      0.8336      0.5528       0.000    
   2    10.00       9.956       9.903       9.844       9.791       9.736       9.670       9.589       9.509       9.457    
        9.421       9.384       9.350       9.295       9.213       9.132       9.054       8.989       8.956       8.919    
        8.877       8.850       8.821       8.773       8.700       8.595       8.461       8.327       8.188       8.040    
        7.813       7.469       7.056       6.588       6.119       5.705       5.380       5.048       4.580       4.110    
        3.679       3.172       2.647       2.210       1.826       1.465       1.094      0.7917      0.4227       0.000    
   3    10.00       9.952       9.901       9.847       9.794       9.730       9.648       9.571       9.520       9.472    
        9.430       9.399       9.365       9.313       9.231       9.130       9.048       8.994       8.953       8.916    
        8.881       8.852       8.823       8.762       8.685       8.578       8.451       8.350       8.203       8.028    
        7.736       7.336       6.895       6.441       6.010       5.625       5.334       4.993       4.486       4.029    
        3.670       3.209       2.725       2.306       1.907       1.543       1.104      0.6792      0.2987       0.000    
   4    10.00       9.956       9.904       9.845       9.779       9.705       9.627       9.570       9.527       9.482    
        9.445       9.419       9.381       9.325       9.250       9.140       9.048       8.998       8.954       8.918    
        8.879       8.844       8.808       8.743       8.664       8.561       8.437       8.323       8.209       7.990    
        7.612       7.123       6.652       6.304       5.983       5.610       5.237       4.804       4.376       4.043    
        3.724       3.315       2.831       2.418       2.000       1.559       1.053      0.6031      0.2809       0.000    
   5    10.00       9.952       9.898       9.830       9.762       9.693       9.625       9.577       9.532       9.493    
        9.461       9.433       9.389       9.323       9.236       9.135       9.057       9.002       8.957       8.908    
        8.861       8.826       8.780       8.714       8.640       8.522       8.399       8.301       8.186       7.907    
        7.410       6.873       6.484       6.220       5.929       5.553       5.128       4.700       4.398       4.115    
        3.827       3.406       2.902       2.541       2.116       1.539      0.9585      0.5567      0.2800       0.000    
   6    10.00       9.941       9.876       9.823       9.759       9.688       9.630       9.586       9.540       9.505    
        9.475       9.440       9.384       9.307       9.232       9.149       9.064       8.996       8.939       8.882    
        8.841       8.803       8.761       8.691       8.581       8.468       8.376       8.270       8.078       7.675    
        7.122       6.636       6.339       6.141       5.906       5.494       5.033       4.694       4.471       4.225    
        3.946       3.565       3.065       2.616       2.090       1.472      0.8595      0.4896      0.2735       0.000    
   7    10.00       9.924       9.863       9.812       9.750       9.699       9.644       9.599       9.559       9.521    
        9.483       9.433       9.365       9.290       9.222       9.154       9.060       8.968       8.906       8.859    
        8.819       8.778       8.734       8.641       8.528       8.438       8.337       8.166       7.841       7.329    
        6.807       6.427       6.244       6.091       5.793       5.385       5.081       4.787       4.546       4.376    
        4.094       3.701       3.166       2.584       1.936       1.226      0.7204      0.4971      0.2517       0.000    
   8    10.00       9.920       9.863       9.808       9.753       9.707       9.660       9.616       9.578       9.542    
        9.486       9.414       9.342       9.277       9.213       9.128       9.016       8.930       8.882       8.838    
        8.791       8.756       8.684       8.584       8.483       8.376       8.187       7.915       7.470       7.028    
        6.640       6.341       6.203       6.016       5.679       5.366       5.114       4.899       4.706       4.505    
        4.214       3.729       3.111       2.448       1.709       1.107      0.7624      0.4876      0.2247       0.000    
   9    10.00       9.923       9.860       9.805       9.766       9.727       9.682       9.639       9.595       9.553    
        9.483       9.394       9.320       9.253       9.176       9.081       8.981       8.904       8.855       8.808    
        8.766       8.709       8.608       8.515       8.412       8.262       7.987       7.580       7.140       6.824    
        6.518       6.301       6.146       5.898       5.588       5.346       5.168       5.004       4.840       4.621    
        4.260       3.755       3.098       2.357       1.676       1.146      0.7778      0.4837      0.2398       0.000    
  10    10.00       9.922       9.857       9.813       9.778       9.740       9.701       9.663       9.612       9.546    
        9.460       9.371       9.298       9.225       9.145       9.034       8.933       8.872       8.828       8.781    
        8.737       8.644       8.536       8.434       8.290       8.065       7.656       7.215       6.869       6.631    
        6.449       6.272       6.064       5.810       5.548       5.365       5.233       5.098       4.914       4.660    
        4.272       3.719       3.016       2.354       1.816       1.313      0.8329      0.5136      0.2707       0.000    
  11    10.00       9.912       9.862       9.824       9.789       9.757       9.721       9.670       9.599       9.525    
        9.439       9.352       9.282       9.185       9.074       8.978       8.905       8.847       8.804       8.752    
        8.673       8.553       8.397       8.246       7.996       7.661       7.298       7.005       6.728       6.557    
        6.404       6.173       5.938       5.750       5.576       5.442       5.310       5.137       4.920       4.623    
        4.258       3.769       3.057       2.453       1.975       1.493      0.9598      0.5089      0.2043       0.000    
  12    10.00       9.919       9.870       9.831       9.801       9.767       9.728       9.659       9.575       9.499    
        9.418       9.330       9.236       9.119       9.028       8.945       8.869       8.821       8.765       8.685    
        8.532       8.327       8.109       7.882       7.573       7.317       7.126       6.827       6.598       6.463    
        6.301       6.086       5.901       5.742       5.630       5.509       5.351       5.155       4.896       4.584    
        4.225       3.747       3.094       2.554       2.121       1.600       1.010      0.4814      0.1601       0.000    
  13    10.00       9.937       9.891       9.849       9.811       9.772       9.714       9.630       9.543       9.467    
        9.382       9.294       9.195       9.075       8.970       8.887       8.833       8.771       8.692       8.506    
        8.225       7.976       7.740       7.457       7.215       7.100       6.865       6.594       6.477       6.365    
        6.191       6.006       5.873       5.765       5.672       5.562       5.381       5.137       4.883       4.561    
        4.203       3.716       3.042       2.537       2.136       1.565      0.9405      0.4355      0.1258       0.000    
  14    10.00       9.954       9.913       9.868       9.823       9.763       9.679       9.591       9.513       9.427    
        9.341       9.261       9.143       9.009       8.913       8.846       8.758       8.664       8.478       8.149    
        7.850       7.627       7.316       7.085       6.975       6.846       6.605       6.448       6.331       6.223    
        6.077       5.963       5.883       5.795       5.699       5.585       5.383       5.116       4.843       4.515    
        4.131       3.542       2.907       2.499       2.008       1.460      0.9276      0.3978      0.1024       0.000    
  15    10.00       9.964       9.922       9.877       9.825       9.735       9.633       9.555       9.477       9.394    
        9.329       9.235       9.080       8.933       8.846       8.729       8.611       8.490       8.177       7.791    
        7.543       7.228       6.944       6.857       6.790       6.621       6.427       6.273       6.190       6.111    
        6.023       5.958       5.896       5.822       5.721       5.581       5.348       5.044       4.757       4.454    
        4.038       3.464       2.915       2.366       1.771       1.281      0.7977      0.3506      0.1052       0.000    
  16    10.00       9.973       9.933       9.879       9.798       9.689       9.600       9.537       9.466       9.381    
        9.294       9.159       8.981       8.840       8.713       8.575       8.493       8.250       7.794       7.438    
        7.187       6.876       6.770       6.717       6.593       6.380       6.224       6.152       6.126       6.073    
        6.008       5.955       5.906       5.828       5.706       5.533       5.253       4.976       4.749       4.423    
        3.950       3.331       2.699       2.089       1.584       1.099      0.6798      0.3328      0.1122       0.000    
  17    10.00       9.973       9.930       9.861       9.760       9.651       9.576       9.518       9.440       9.345    
        9.200       9.029       8.868       8.713       8.555       8.423       8.223       7.814       7.387       7.140    
        6.893       6.702       6.619       6.498       6.303       6.144       6.103       6.095       6.079       6.033    
        5.983       5.943       5.899       5.827       5.653       5.415       5.174       4.978       4.762       4.351    
        3.718       3.087       2.484       1.885       1.355      0.8891      0.5698      0.2976      0.1223       0.000    
  18    10.00       9.967       9.917       9.834       9.708       9.621       9.562       9.483       9.393       9.261    
        9.086       8.933       8.771       8.563       8.355       8.135       7.842       7.426       7.106       6.889    
        6.688       6.527       6.400       6.227       6.094       6.053       6.043       6.040       6.017       5.983    
        5.954       5.923       5.872       5.751       5.570       5.367       5.163       4.988       4.685       4.136    
        3.488       2.816       2.171       1.679       1.257      0.8336      0.4894      0.2462      0.1180       0.000    
  19    10.00       9.960       9.905       9.784       9.659       9.607       9.542       9.445       9.334       9.192    
        9.032       8.888       8.652       8.337       8.090       7.862       7.507       7.127       6.911       6.744    
        6.536       6.341       6.201       6.068       6.003       5.989       5.984       5.966       5.938       5.926    
        5.912       5.886       5.812       5.694       5.541       5.344       5.159       4.906       4.388       3.817    
        3.293       2.598       1.985       1.595       1.175      0.7521      0.4419      0.2507      0.1284       0.000    
  20    10.00       9.951       9.859       9.735       9.644       9.588       9.517       9.413       9.290       9.161    
        8.997       8.777       8.425       8.111       7.890       7.608       7.254       7.046       6.849       6.616    
        6.387       6.212       6.067       5.973       5.926       5.902       5.874       5.867       5.853       5.858    
        5.856       5.833       5.756       5.645       5.488       5.317       5.086       4.625       4.063       3.606    
        3.037       2.396       1.937       1.560       1.136      0.6674      0.3859      0.2609      0.1344       0.000    
  21    10.00       9.918       9.820       9.716       9.627       9.568       9.492       9.371       9.249       9.126    
        8.907       8.570       8.211       7.973       7.725       7.428       7.165       6.967       6.729       6.483    
        6.263       6.092       5.965       5.866       5.800       5.751       5.735       5.744       5.748       5.764    
        5.780       5.750       5.672       5.567       5.408       5.219       4.857       4.370       3.924       3.368    
        2.829       2.323       1.935       1.553      0.9570      0.5402      0.3906      0.2947      0.1413       0.000    
  22    10.00       9.897       9.779       9.687       9.616       9.545       9.438       9.326       9.217       9.048    
        8.766       8.385       8.098       7.883       7.605       7.300       7.047       6.837       6.620       6.387    
        6.168       5.987       5.817       5.665       5.579       5.560       5.578       5.594       5.632       5.656    
        5.677       5.643       5.578       5.468       5.308       5.119       4.748       4.276       3.692       3.154    
        2.763       2.358       1.892       1.252      0.7462      0.5385      0.4093      0.2725      0.1008       0.000    
  23    10.00       9.867       9.752       9.679       9.605       9.499       9.382       9.298       9.161       8.948    
        8.618       8.291       8.085       7.817       7.455       7.151       6.952       6.781       6.577       6.326    
        6.096       5.885       5.641       5.355       5.146       5.191       5.327       5.417       5.497       5.551    
        5.572       5.552       5.490       5.388       5.236       5.022       4.647       4.063       3.478       3.097    
        2.736       2.227       1.558       1.009      0.7341      0.5490      0.3927      0.2317      9.2192E-02   0.000    
  24    10.00       9.846       9.764       9.676       9.570       9.459       9.369       9.275       9.143       8.861    
        8.551       8.310       8.077       7.719       7.322       7.103       6.935       6.767       6.535       6.299    
        6.094       5.826       5.435       4.894       4.232       4.505       4.910       5.192       5.359       5.445    
        5.486       5.471       5.422       5.309       5.140       4.872       4.396       3.843       3.403       3.007    
        2.564       1.995       1.398      0.9780      0.7354      0.5348      0.3582      0.2510      0.1232       0.000    
  25    10.00       9.864       9.779       9.669       9.557       9.456       9.366       9.280       9.082       8.807    
        8.568       8.325       8.019       7.626       7.331       7.135       6.946       6.744       6.532       6.329    
        6.094       5.836       5.279       4.248       2.410       3.781       4.525       4.967       5.241       5.382    
        5.429       5.420       5.361       5.205       4.975       4.610       4.161       3.727       3.349       2.884    
        2.350       1.807       1.303      0.9693      0.7623      0.5557      0.3774      0.2628      0.1636       0.000    
  26    10.00       9.882       9.799       9.683       9.564       9.471       9.376       9.248       9.052       8.861    
        8.638       8.304       7.930       7.612       7.390       7.198       6.979       6.730       6.525       6.355    
        6.160       5.906       5.425       4.668       3.828       4.185       4.635       4.967       5.220       5.370    
        5.405       5.383       5.286       5.099       4.844       4.496       4.000       3.588       3.234       2.671    
        2.067       1.591       1.290       1.058      0.8219      0.5999      0.4114      0.2855      0.1668       0.000    
  27    10.00       9.906       9.804       9.699       9.596       9.487       9.380       9.251       9.089       8.915    
        8.632       8.257       7.929       7.665       7.479       7.259       6.973       6.715       6.555       6.416    
        6.263       6.029       5.665       5.220       4.769       4.742       4.915       5.128       5.314       5.396    
        5.398       5.361       5.247       5.042       4.743       4.271       3.804       3.464       2.928       2.336    
        1.867       1.562       1.335       1.132      0.8985      0.6547      0.4469      0.3142      0.1982       0.000    
  28    10.00       9.912       9.828       9.733       9.632       9.516       9.398       9.273       9.133       8.929    
        8.599       8.272       7.987       7.728       7.531       7.316       7.082       6.834       6.608       6.465    
        6.343       6.177       5.943       5.621       5.347       5.187       5.224       5.358       5.420       5.437    
        5.408       5.345       5.203       4.942       4.546       4.057       3.654       3.176       2.617       2.198    
        1.864       1.605       1.383       1.171      0.9441      0.7144      0.5070      0.3578      0.2045       0.000    
  29    10.00       9.918       9.836       9.761       9.662       9.557       9.442       9.315       9.160       8.887    
        8.579       8.303       8.032       7.815       7.590       7.362       7.151       6.951       6.736       6.547    
        6.417       6.290       6.135       5.944       5.685       5.558       5.544       5.549       5.548       5.499    
        5.423       5.299       5.128       4.790       4.306       3.874       3.468       2.969       2.523       2.215    
        1.944       1.660       1.409       1.206       1.001      0.7556      0.5357      0.3739      0.2073       0.000    
  30    10.00       9.929       9.861       9.795       9.706       9.603       9.500       9.355       9.147       8.899    
        8.588       8.288       8.067       7.849       7.637       7.431       7.261       7.077       6.868       6.668    
        6.508       6.400       6.270       6.141       6.000       5.884       5.841       5.748       5.680       5.569    
        5.415       5.203       4.960       4.603       4.224       3.819       3.385       2.918       2.579       2.300    
        1.979       1.694       1.475       1.243      0.9996      0.7819      0.5710      0.3971      0.2231       0.000    
  31    10.00       9.944       9.887       9.825       9.759       9.675       9.558       9.378       9.142       8.880    
        8.581       8.313       8.111       7.899       7.702       7.513       7.344       7.200       6.991       6.791    
        6.645       6.530       6.428       6.327       6.250       6.141       6.024       5.919       5.780       5.605    
        5.357       5.086       4.836       4.546       4.184       3.755       3.315       2.932       2.694       2.428    
        2.070       1.757       1.508       1.273       1.046      0.8226      0.6051      0.4179      0.2164       0.000    
  32    10.00       9.951       9.911       9.857       9.794       9.715       9.590       9.383       9.168       8.921    
        8.613       8.365       8.175       7.957       7.748       7.594       7.447       7.278       7.110       6.914    
        6.763       6.642       6.548       6.458       6.371       6.284       6.147       6.009       5.829       5.588    
        5.303       5.032       4.774       4.495       4.139       3.753       3.408       3.082       2.808       2.503    
        2.173       1.864       1.601       1.331       1.084      0.8945      0.6673      0.4100      0.1831       0.000    
  33    10.00       9.959       9.927       9.881       9.817       9.733       9.570       9.366       9.193       8.972    
        8.691       8.456       8.233       7.988       7.804       7.675       7.548       7.375       7.191       7.022    
        6.855       6.730       6.615       6.517       6.440       6.353       6.206       6.013       5.821       5.589    
        5.304       5.059       4.789       4.446       4.113       3.770       3.490       3.233       2.922       2.586    
        2.300       2.007       1.719       1.440       1.180      0.9685      0.7139      0.4120      0.1791       0.000    
  34    10.00       9.966       9.942       9.903       9.819       9.696       9.546       9.405       9.226       9.008    
        8.769       8.514       8.263       8.025       7.874       7.769       7.632       7.467       7.259       7.096    
        6.945       6.790       6.665       6.569       6.491       6.379       6.206       6.022       5.816       5.546    
        5.294       5.095       4.829       4.496       4.165       3.850       3.584       3.329       3.008       2.704    
        2.449       2.167       1.852       1.573       1.310       1.067      0.7635      0.4635      0.2431       0.000    
  35    10.00       9.972       9.942       9.886       9.784       9.663       9.556       9.434       9.290       9.055    
        8.794       8.539       8.287       8.091       7.957       7.846       7.700       7.525       7.324       7.131    
        6.976       6.830       6.703       6.611       6.525       6.410       6.221       6.002       5.760       5.479    
        5.288       5.080       4.810       4.566       4.289       3.957       3.664       3.449       3.146       2.822    
        2.575       2.287       1.971       1.697       1.423       1.157      0.8751      0.5800      0.2869       0.000    
  36    10.00       9.965       9.918       9.857       9.762       9.650       9.561       9.456       9.301       9.074    
        8.790       8.521       8.342       8.193       8.061       7.919       7.748       7.571       7.357       7.105    
        6.936       6.825       6.715       6.637       6.550       6.405       6.193       5.951       5.655       5.400    
        5.236       5.067       4.834       4.599       4.367       4.070       3.779       3.551       3.280       2.926    
        2.656       2.334       2.019       1.810       1.544       1.248      0.9653      0.6569      0.3214       0.000    
  37    10.00       9.947       9.896       9.835       9.743       9.645       9.544       9.444       9.301       9.039    
        8.743       8.538       8.432       8.289       8.126       7.985       7.775       7.556       7.286       7.030    
        6.916       6.822       6.716       6.631       6.529       6.353       6.137       5.821       5.549       5.381    
        5.238       5.057       4.827       4.642       4.406       4.126       3.898       3.678       3.375       2.986    
        2.632       2.330       2.111       1.894       1.627       1.347       1.064      0.7245      0.3978       0.000    
  38    10.00       9.939       9.874       9.811       9.730       9.637       9.530       9.422       9.259       9.012    
        8.792       8.629       8.494       8.365       8.189       7.960       7.725       7.471       7.171       6.998    
        6.906       6.785       6.676       6.604       6.489       6.290       5.972       5.675       5.531       5.403    
        5.253       5.060       4.853       4.669       4.438       4.184       3.997       3.774       3.386       2.958    
        2.651       2.399       2.181       1.957       1.722       1.437       1.155      0.8378      0.4140       0.000    
  39    10.00       9.922       9.859       9.801       9.724       9.618       9.505       9.394       9.240       9.039    
        8.867       8.742       8.591       8.414       8.161       7.875       7.610       7.315       7.101       6.989    
        6.852       6.711       6.628       6.559       6.447       6.182       5.861       5.681       5.550       5.418    
        5.248       5.066       4.867       4.683       4.508       4.299       4.053       3.783       3.401       3.003    
        2.678       2.418       2.247       2.059       1.794       1.512       1.226      0.8720      0.4086       0.000    
  40    10.00       9.914       9.853       9.795       9.715       9.606       9.496       9.386       9.249       9.082    
        8.940       8.831       8.646       8.371       8.054       7.768       7.487       7.234       7.078       6.939    
        6.780       6.657       6.587       6.501       6.350       6.114       5.897       5.718       5.570       5.433    
        5.267       5.072       4.883       4.730       4.576       4.365       4.081       3.799       3.411       2.983    
        2.680       2.474       2.285       2.125       1.846       1.537       1.275      0.8745      0.4071       0.000    
  41    10.00       9.921       9.851       9.781       9.695       9.610       9.517       9.415       9.280       9.128    
        8.992       8.860       8.622       8.296       7.970       7.702       7.426       7.184       7.032       6.881    
        6.722       6.614       6.536       6.434       6.278       6.101       5.955       5.780       5.596       5.435    
        5.276       5.100       4.919       4.786       4.623       4.412       4.129       3.739       3.293       2.964    
        2.744       2.545       2.349       2.126       1.836       1.540       1.316      0.9316      0.4224       0.000    
  42    10.00       9.921       9.842       9.780       9.717       9.638       9.539       9.423       9.308       9.191    
        9.019       8.792       8.516       8.204       7.902       7.657       7.388       7.152       6.988       6.818    
        6.670       6.574       6.488       6.395       6.254       6.130       6.007       5.809       5.604       5.458    
        5.328       5.135       4.942       4.813       4.662       4.437       4.089       3.629       3.221       2.976    
        2.810       2.632       2.383       2.086       1.808       1.576       1.344      0.9826      0.4848       0.000    
  43    10.00       9.915       9.847       9.795       9.744       9.668       9.571       9.461       9.333       9.153    
        8.930       8.696       8.438       8.114       7.842       7.616       7.374       7.137       6.929       6.770    
        6.637       6.541       6.468       6.392       6.272       6.144       6.018       5.814       5.635       5.528    
        5.369       5.161       4.975       4.842       4.666       4.375       3.972       3.536       3.239       3.051    
        2.874       2.669       2.364       2.060       1.813       1.590       1.390      0.9965      0.4554       0.000    
  44    10.00       9.914       9.856       9.808       9.748       9.691       9.611       9.464       9.275       9.066    
        8.879       8.642       8.330       8.060       7.842       7.583       7.318       7.068       6.862       6.723    
        6.625       6.543       6.469       6.390       6.286       6.155       5.986       5.817       5.696       5.569    
        5.426       5.245       5.032       4.828       4.614       4.288       3.865       3.507       3.277       3.096    
        2.917       2.674       2.379       2.116       1.852       1.613       1.368      0.8996      0.4137       0.000    
  45    10.00       9.924       9.869       9.807       9.748       9.699       9.568       9.394       9.202       9.023    
        8.869       8.553       8.229       8.032       7.798       7.511       7.223       6.992       6.825       6.715    
        6.640       6.563       6.481       6.388       6.273       6.145       6.002       5.872       5.765       5.633    
        5.468       5.280       5.061       4.804       4.547       4.196       3.800       3.518       3.343       3.156    
        2.918       2.640       2.387       2.147       1.914       1.675       1.277      0.7995      0.4023       0.000    
  46    10.00       9.938       9.880       9.808       9.740       9.642       9.500       9.368       9.208       9.016    
        8.761       8.460       8.200       7.950       7.701       7.423       7.156       6.985       6.848       6.742    
        6.667       6.592       6.488       6.372       6.261       6.153       6.040       5.920       5.813       5.696    
        5.548       5.350       5.100       4.796       4.429       4.065       3.772       3.572       3.390       3.195    
        2.914       2.617       2.366       2.175       1.952       1.642       1.189      0.7636      0.3765       0.000    
  47    10.00       9.950       9.895       9.823       9.707       9.579       9.457       9.353       9.206       8.953    
        8.647       8.371       8.145       7.936       7.672       7.369       7.134       6.972       6.862       6.773    
        6.692       6.604       6.496       6.373       6.265       6.180       6.086       5.968       5.845       5.730    
        5.601       5.435       5.104       4.677       4.319       4.057       3.812       3.640       3.478       3.209    
        2.866       2.552       2.325       2.193       1.946       1.566       1.124      0.7366      0.3722       0.000    
  48    10.00       9.955       9.898       9.791       9.672       9.561       9.439       9.334       9.185       8.899    
        8.566       8.335       8.150       7.894       7.586       7.313       7.136       6.972       6.863       6.794    
        6.712       6.606       6.489       6.377       6.288       6.220       6.136       6.006       5.863       5.740    
        5.604       5.404       5.059       4.705       4.386       4.097       3.878       3.702       3.495       3.153    
        2.784       2.542       2.361       2.129       1.805       1.467       1.089      0.7419      0.3928       0.000    
  49    10.00       9.953       9.867       9.763       9.674       9.555       9.436       9.325       9.137       8.834    
        8.536       8.315       8.084       7.825       7.593       7.339       7.092       6.940       6.874       6.809    
        6.731       6.609       6.474       6.376       6.308       6.258       6.162       6.012       5.861       5.749    
        5.602       5.340       5.035       4.785       4.517       4.199       3.915       3.698       3.455       3.087    
        2.790       2.578       2.328       1.993       1.706       1.402       1.071      0.7541      0.3840       0.000    
  50    10.00       9.940       9.846       9.751       9.679       9.568       9.436       9.295       9.092       8.853    
        8.551       8.255       8.014       7.808       7.621       7.336       7.055       6.941       6.882       6.819    
        6.744       6.607       6.462       6.374       6.320       6.274       6.167       6.005       5.862       5.747    
        5.586       5.311       5.076       4.862       4.572       4.255       3.968       3.679       3.329       3.004    
        2.847       2.624       2.259       1.921       1.681       1.391       1.103      0.7366      0.3025       0.000    

 HEAD WILL BE SAVED ON UNIT   51 AT END OF TIME STEP  51, STRESS PERIOD    2

 DRAWDOWN WILL BE SAVED ON UNIT   52 AT END OF TIME STEP  51, STRESS PERIOD    2
1
  VOLUMETRIC BUDGET FOR ENTIRE MODEL AT END OF TIME STEP 51 IN STRESS PERIOD   2
  ------------------------------------------------------------------------------

     CUMULATIVE VOLUMES      L**3       RATES FOR THIS TIME STEP      L**3/T
     ------------------                 ------------------------

           IN:                                      IN:
           ---                                      ---
             STORAGE =       24900.1484               STORAGE =         458.1226
       CONSTANT HEAD =       28659.8457         CONSTANT HEAD =         580.2905
               WELLS =           0.0000                 WELLS =           0.0000

            TOTAL IN =       53559.9922              TOTAL IN =        1038.4131

          OUT:                                     OUT:
          ----                                     ----
             STORAGE =       9.3745E-03               STORAGE =           0.0000
       CONSTANT HEAD =       28059.9727         CONSTANT HEAD =         538.4127
               WELLS =       25500.0000                 WELLS =         500.0000

           TOTAL OUT =       53559.9805             TOTAL OUT =        1038.4126

            IN - OUT =       1.1719E-02              IN - OUT =       4.8828E-04

 PERCENT DISCREPANCY =           0.00     PERCENT DISCREPANCY =           0.00






          TIME SUMMARY AT END OF TIME STEP  51 IN STRESS PERIOD    2
                    SECONDS     MINUTES      HOURS       DAYS        YEARS
                    -----------------------------------------------------------
   TIME STEP LENGTH  86400.      1440.0      24.000      1.0000     2.73785E-03
 STRESS PERIOD TIME 4.40640E+06  73440.      1224.0      51.000     0.13963    
         TOTAL TIME 4.49280E+06  74880.      1248.0      52.000     0.14237    
1
 
 SOLVING FOR HEAD 

 OUTPUT CONTROL FOR STRESS PERIOD    2   TIME STEP  52
    SAVE HEAD FOR ALL LAYERS
    SAVE DRAWDOWN FOR ALL LAYERS
    SAVE BUDGET
    PRINT HEAD FOR ALL LAYERS
    PRINT BUDGET
 UBDSV1 SAVING "         STORAGE" ON UNIT  53 AT TIME STEP 52, STRESS PERIOD   2
 UBDSV2 SAVING "   CONSTANT HEAD" ON UNIT  53 AT TIME STEP 52, STRESS PERIOD   2
 UBDSV1 SAVING "FLOW RIGHT FACE " ON UNIT  53 AT TIME STEP 52, STRESS PERIOD   2
 UBDSV1 SAVING "FLOW FRONT FACE " ON UNIT  53 AT TIME STEP 52, STRESS PERIOD   2
1
              HEAD IN LAYER   1 AT END OF TIME STEP  52 IN STRESS PERIOD    2
  ---------------------------------------------------------------------------

            1           2           3           4           5           6           7           8           9          10
           11          12          13          14          15          16          17          18          19          20
           21          22          23          24          25          26          27          28          29          30
           31          32          33          34          35          36          37          38          39          40
           41          42          43          44          45          46          47          48          49          50
 ........................................................................................................................
   1    10.00       9.956       9.897       9.838       9.788       9.728       9.669       9.607       9.523       9.455    
        9.415       9.374       9.329       9.285       9.214       9.135       9.050       8.983       8.952       8.919    
        8.878       8.843       8.807       8.761       8.698       8.588       8.455       8.326       8.178       8.030    
        7.820       7.487       7.094       6.680       6.216       5.786       5.423       5.085       4.624       4.122    
        3.696       3.274       2.693       2.141       1.755       1.368       1.043      0.8332      0.5526       0.000    
   2    10.00       9.956       9.903       9.843       9.791       9.735       9.669       9.588       9.508       9.455    
        9.419       9.382       9.348       9.293       9.210       9.129       9.051       8.986       8.953       8.915    
        8.873       8.847       8.818       8.769       8.697       8.592       8.458       8.323       8.184       8.037    
        7.810       7.466       7.053       6.585       6.116       5.702       5.377       5.046       4.578       4.108    
        3.677       3.170       2.645       2.209       1.825       1.464       1.094      0.7913      0.4225       0.000    
   3    10.00       9.952       9.901       9.846       9.793       9.729       9.647       9.569       9.518       9.470    
        9.429       9.397       9.363       9.311       9.229       9.128       9.045       8.991       8.950       8.912    
        8.878       8.849       8.820       8.759       8.681       8.575       8.448       8.346       8.199       8.025    
        7.732       7.332       6.892       6.438       6.007       5.622       5.332       4.990       4.484       4.026    
        3.668       3.207       2.723       2.304       1.906       1.542       1.104      0.6789      0.2986       0.000    
   4    10.00       9.956       9.904       9.844       9.778       9.704       9.626       9.568       9.525       9.480    
        9.444       9.417       9.379       9.322       9.247       9.137       9.045       8.995       8.951       8.915    
        8.875       8.841       8.804       8.740       8.660       8.557       8.434       8.320       8.205       7.987    
        7.608       7.119       6.648       6.301       5.979       5.607       5.234       4.801       4.373       4.040    
        3.722       3.313       2.830       2.417       1.999       1.558       1.053      0.6029      0.2808       0.000    
   5    10.00       9.952       9.897       9.829       9.761       9.692       9.624       9.575       9.530       9.491    
        9.460       9.431       9.387       9.321       9.233       9.133       9.054       8.999       8.954       8.904    
        8.858       8.823       8.777       8.711       8.636       8.518       8.395       8.297       8.182       7.903    
        7.406       6.868       6.479       6.215       5.925       5.549       5.124       4.697       4.394       4.112    
        3.825       3.404       2.900       2.539       2.115       1.538      0.9580      0.5564      0.2799       0.000    
   6    10.00       9.941       9.876       9.823       9.758       9.687       9.629       9.585       9.539       9.503    
        9.474       9.439       9.382       9.305       9.230       9.146       9.061       8.993       8.935       8.878    
        8.837       8.799       8.757       8.687       8.577       8.464       8.372       8.266       8.073       7.671    
        7.117       6.631       6.334       6.136       5.902       5.489       5.028       4.690       4.468       4.221    
        3.943       3.563       3.063       2.614       2.089       1.471      0.8590      0.4894      0.2734       0.000    
   7    10.00       9.924       9.863       9.811       9.749       9.698       9.643       9.597       9.558       9.520    
        9.481       9.431       9.363       9.288       9.220       9.151       9.057       8.964       8.902       8.856    
        8.816       8.775       8.730       8.637       8.524       8.433       8.333       8.161       7.836       7.324    
        6.801       6.421       6.238       6.085       5.787       5.379       5.076       4.783       4.542       4.372    
        4.091       3.698       3.164       2.583       1.935       1.226      0.7200      0.4969      0.2516       0.000    
   8    10.00       9.919       9.862       9.807       9.752       9.706       9.659       9.615       9.577       9.540    
        9.485       9.412       9.340       9.274       9.210       9.125       9.013       8.926       8.879       8.834    
        8.787       8.752       8.679       8.579       8.479       8.371       8.182       7.910       7.464       7.021    
        6.633       6.335       6.196       6.010       5.673       5.360       5.109       4.894       4.702       4.501    
        4.210       3.726       3.109       2.446       1.708       1.107      0.7620      0.4874      0.2246       0.000    
   9    10.00       9.923       9.859       9.805       9.765       9.727       9.681       9.637       9.594       9.552    
        9.481       9.392       9.317       9.251       9.173       9.078       8.977       8.900       8.851       8.804    
        8.762       8.705       8.604       8.511       8.407       8.257       7.981       7.573       7.133       6.816    
        6.510       6.294       6.139       5.891       5.581       5.340       5.162       4.999       4.835       4.617    
        4.256       3.752       3.095       2.355       1.676       1.146      0.7774      0.4835      0.2397       0.000    
  10    10.00       9.922       9.857       9.812       9.777       9.740       9.700       9.661       9.611       9.544    
        9.458       9.369       9.296       9.223       9.141       9.031       8.929       8.868       8.824       8.777    
        8.733       8.640       8.531       8.428       8.285       8.059       7.648       7.206       6.861       6.622    
        6.441       6.264       6.056       5.802       5.541       5.359       5.226       5.092       4.909       4.656    
        4.268       3.716       3.014       2.352       1.815       1.312      0.8325      0.5134      0.2706       0.000    
  11    10.00       9.911       9.861       9.824       9.788       9.756       9.720       9.669       9.598       9.523    
        9.437       9.349       9.279       9.182       9.070       8.974       8.901       8.843       8.800       8.747    
        8.668       8.548       8.392       8.239       7.989       7.653       7.289       6.996       6.719       6.548    
        6.395       6.164       5.930       5.742       5.568       5.435       5.303       5.130       4.914       4.618    
        4.254       3.766       3.055       2.451       1.974       1.492      0.9594      0.5087      0.2042       0.000    
  12    10.00       9.919       9.870       9.830       9.800       9.766       9.727       9.658       9.574       9.497    
        9.415       9.328       9.233       9.116       9.024       8.941       8.865       8.816       8.760       8.680    
        8.526       8.320       8.102       7.874       7.564       7.307       7.116       6.816       6.588       6.453    
        6.291       6.077       5.891       5.734       5.621       5.501       5.344       5.149       4.890       4.579    
        4.221       3.743       3.092       2.552       2.120       1.599       1.009      0.4813      0.1600       0.000    
  13    10.00       9.937       9.891       9.848       9.810       9.771       9.713       9.629       9.541       9.465    
        9.379       9.291       9.192       9.071       8.965       8.882       8.828       8.766       8.687       8.499    
        8.218       7.968       7.731       7.447       7.204       7.089       6.854       6.582       6.465       6.354    
        6.181       5.996       5.863       5.755       5.663       5.553       5.374       5.130       4.877       4.556    
        4.199       3.713       3.040       2.536       2.135       1.565      0.9402      0.4353      0.1258       0.000    
  14    10.00       9.954       9.912       9.867       9.822       9.762       9.678       9.589       9.510       9.424    
        9.338       9.257       9.139       9.004       8.908       8.841       8.753       8.658       8.471       8.141    
        7.840       7.617       7.305       7.073       6.963       6.834       6.592       6.435       6.319       6.211    
        6.065       5.951       5.872       5.785       5.690       5.576       5.375       5.108       4.837       4.509    
        4.127       3.539       2.905       2.498       2.007       1.459      0.9273      0.3977      0.1024       0.000    
  15    10.00       9.963       9.922       9.877       9.824       9.734       9.631       9.553       9.474       9.391    
        9.326       9.231       9.076       8.928       8.840       8.723       8.605       8.483       8.168       7.781    
        7.532       7.216       6.931       6.843       6.776       6.607       6.413       6.259       6.176       6.098    
        6.010       5.946       5.885       5.812       5.711       5.572       5.340       5.036       4.750       4.448    
        4.034       3.461       2.913       2.364       1.770       1.281      0.7974      0.3505      0.1052       0.000    
  16    10.00       9.973       9.932       9.879       9.797       9.687       9.598       9.534       9.464       9.378    
        9.291       9.155       8.976       8.834       8.706       8.568       8.486       8.241       7.783       7.426    
        7.174       6.863       6.756       6.703       6.579       6.366       6.209       6.138       6.112       6.059    
        5.995       5.942       5.894       5.817       5.695       5.523       5.244       4.969       4.743       4.417    
        3.945       3.328       2.697       2.088       1.583       1.098      0.6795      0.3327      0.1122       0.000    
  17    10.00       9.973       9.930       9.860       9.759       9.649       9.574       9.516       9.437       9.341    
        9.196       9.024       8.862       8.707       8.548       8.414       8.214       7.803       7.375       7.127    
        6.879       6.688       6.604       6.483       6.288       6.129       6.088       6.081       6.065       6.019    
        5.970       5.930       5.886       5.814       5.642       5.405       5.165       4.970       4.755       4.345    
        3.714       3.084       2.482       1.884       1.354      0.8887      0.5695      0.2975      0.1222       0.000    
  18    10.00       9.967       9.917       9.833       9.707       9.619       9.559       9.480       9.390       9.257    
        9.081       8.927       8.764       8.555       8.346       8.125       7.831       7.413       7.092       6.875    
        6.673       6.512       6.385       6.212       6.079       6.038       6.027       6.025       6.002       5.969    
        5.940       5.910       5.859       5.739       5.559       5.357       5.154       4.980       4.678       4.130    
        3.484       2.813       2.170       1.678       1.256      0.8332      0.4892      0.2461      0.1179       0.000    
  19    10.00       9.959       9.904       9.783       9.657       9.605       9.540       9.442       9.330       9.187    
        9.026       8.882       8.645       8.328       8.079       7.851       7.494       7.113       6.896       6.729    
        6.520       6.325       6.185       6.052       5.987       5.973       5.968       5.950       5.922       5.911    
        5.898       5.872       5.799       5.681       5.529       5.334       5.150       4.898       4.382       3.812    
        3.290       2.596       1.984       1.594       1.175      0.7517      0.4417      0.2506      0.1283       0.000    
  20    10.00       9.950       9.858       9.733       9.642       9.585       9.515       9.410       9.286       9.156    
        8.991       8.770       8.416       8.100       7.878       7.595       7.240       7.032       6.834       6.601    
        6.371       6.196       6.051       5.957       5.910       5.886       5.858       5.851       5.837       5.842    
        5.841       5.819       5.742       5.632       5.476       5.306       5.076       4.618       4.058       3.602    
        3.034       2.394       1.936       1.559       1.136      0.6671      0.3858      0.2608      0.1344       0.000    
  21    10.00       9.918       9.819       9.715       9.625       9.566       9.489       9.367       9.244       9.121    
        8.900       8.562       8.201       7.961       7.713       7.414       7.151       6.952       6.714       6.467    
        6.247       6.076       5.949       5.850       5.784       5.735       5.719       5.728       5.732       5.747    
        5.764       5.735       5.657       5.553       5.396       5.208       4.848       4.364       3.919       3.364    
        2.826       2.321       1.934       1.552      0.9565      0.5400      0.3904      0.2946      0.1412       0.000    
  22    10.00       9.897       9.778       9.685       9.614       9.542       9.435       9.321       9.212       9.042    
        8.759       8.376       8.087       7.871       7.592       7.286       7.033       6.822       6.604       6.371    
        6.152       5.971       5.801       5.648       5.562       5.543       5.561       5.577       5.615       5.639    
        5.660       5.627       5.563       5.454       5.295       5.108       4.739       4.269       3.688       3.151    
        2.760       2.357       1.891       1.251      0.7459      0.5383      0.4092      0.2724      0.1008       0.000    
  23    10.00       9.867       9.751       9.678       9.603       9.496       9.378       9.293       9.155       8.942    
        8.609       8.281       8.074       7.804       7.442       7.136       6.937       6.766       6.561       6.310    
        6.080       5.868       5.624       5.338       5.129       5.173       5.310       5.399       5.480       5.534    
        5.555       5.536       5.475       5.373       5.224       5.011       4.638       4.057       3.474       3.094    
        2.734       2.225       1.557       1.008      0.7339      0.5488      0.3926      0.2316      9.2167E-02   0.000    
  24    10.00       9.846       9.762       9.674       9.567       9.456       9.365       9.271       9.138       8.854    
        8.542       8.300       8.066       7.706       7.308       7.088       6.920       6.751       6.519       6.283    
        6.078       5.809       5.418       4.876       4.215       4.487       4.892       5.175       5.342       5.428    
        5.469       5.455       5.407       5.294       5.127       4.861       4.388       3.838       3.399       3.004    
        2.562       1.994       1.397      0.9777      0.7352      0.5346      0.3581      0.2509      0.1232       0.000    
  25    10.00       9.863       9.778       9.667       9.555       9.453       9.362       9.276       9.076       8.800    
        8.560       8.315       8.008       7.613       7.317       7.121       6.930       6.728       6.516       6.313    
        6.077       5.820       5.262       4.230       2.392       3.763       4.507       4.949       5.223       5.364    
        5.412       5.404       5.345       5.191       4.963       4.600       4.154       3.721       3.345       2.882    
        2.349       1.806       1.303      0.9690      0.7620      0.5556      0.3773      0.2628      0.1636       0.000    
  26    10.00       9.881       9.798       9.681       9.561       9.468       9.372       9.244       9.046       8.854    
        8.629       8.294       7.919       7.599       7.376       7.184       6.964       6.715       6.509       6.339    
        6.143       5.889       5.408       4.650       3.810       4.166       4.617       4.948       5.202       5.352    
        5.388       5.367       5.271       5.086       4.833       4.486       3.993       3.583       3.230       2.669    
        2.066       1.590       1.290       1.058      0.8217      0.5997      0.4113      0.2855      0.1668       0.000    
  27    10.00       9.905       9.802       9.697       9.594       9.484       9.376       9.246       9.083       8.908    
        8.624       8.247       7.918       7.653       7.466       7.246       6.959       6.699       6.539       6.400    
        6.247       6.013       5.649       5.202       4.751       4.724       4.897       5.110       5.295       5.379    
        5.382       5.345       5.232       5.029       4.732       4.263       3.799       3.460       2.925       2.334    
        1.866       1.561       1.335       1.132      0.8983      0.6546      0.4468      0.3142      0.1982       0.000    
  28    10.00       9.912       9.827       9.732       9.630       9.513       9.394       9.269       9.128       8.923    
        8.591       8.262       7.976       7.716       7.518       7.302       7.068       6.819       6.593       6.449    
        6.327       6.161       5.926       5.604       5.329       5.169       5.206       5.340       5.402       5.419    
        5.391       5.329       5.189       4.930       4.537       4.050       3.650       3.173       2.615       2.196    
        1.863       1.604       1.383       1.171      0.9438      0.7142      0.5069      0.3577      0.2044       0.000    
  29    10.00       9.918       9.835       9.760       9.660       9.555       9.439       9.311       9.155       8.881    
        8.571       8.293       8.021       7.803       7.578       7.349       7.137       6.937       6.721       6.532    
        6.401       6.274       6.119       5.928       5.668       5.541       5.526       5.531       5.531       5.482    
        5.407       5.285       5.115       4.780       4.299       3.869       3.464       2.967       2.521       2.214    
        1.943       1.660       1.409       1.206       1.001      0.7554      0.5356      0.3738      0.2073       0.000    
  30    10.00       9.929       9.860       9.794       9.705       9.601       9.497       9.351       9.143       8.893    
        8.580       8.279       8.056       7.838       7.625       7.418       7.247       7.063       6.853       6.653    
        6.493       6.385       6.254       6.125       5.984       5.867       5.824       5.732       5.664       5.554    
        5.400       5.191       4.950       4.595       4.218       3.815       3.382       2.916       2.578       2.299    
        1.978       1.693       1.474       1.243      0.9993      0.7817      0.5709      0.3970      0.2231       0.000    
  31    10.00       9.943       9.887       9.824       9.757       9.673       9.556       9.375       9.137       8.874    
        8.574       8.304       8.101       7.888       7.690       7.501       7.331       7.187       6.977       6.776    
        6.630       6.515       6.412       6.311       6.235       6.126       6.009       5.903       5.765       5.591    
        5.346       5.076       4.828       4.539       4.179       3.751       3.312       2.930       2.692       2.426    
        2.069       1.757       1.507       1.273       1.046      0.8224      0.6050      0.4178      0.2163       0.000    
  32    10.00       9.951       9.910       9.856       9.793       9.713       9.588       9.380       9.164       8.915    
        8.606       8.357       8.166       7.947       7.737       7.582       7.435       7.265       7.097       6.900    
        6.749       6.627       6.533       6.444       6.357       6.269       6.133       5.995       5.816       5.576    
        5.293       5.024       4.767       4.490       4.134       3.750       3.406       3.080       2.807       2.502    
        2.172       1.863       1.600       1.330       1.084      0.8943      0.6671      0.4099      0.1831       0.000    
  33    10.00       9.959       9.927       9.880       9.816       9.731       9.568       9.363       9.189       8.967    
        8.685       8.449       8.224       7.979       7.794       7.664       7.537       7.363       7.178       7.009    
        6.841       6.717       6.601       6.504       6.426       6.340       6.193       6.001       5.810       5.580    
        5.296       5.052       4.783       4.441       4.109       3.767       3.488       3.231       2.921       2.585    
        2.300       2.007       1.718       1.439       1.180      0.9684      0.7138      0.4120      0.1791       0.000    
  34    10.00       9.966       9.941       9.902       9.819       9.694       9.544       9.402       9.222       9.003    
        8.763       8.506       8.255       8.016       7.865       7.759       7.622       7.456       7.248       7.084    
        6.933       6.778       6.653       6.556       6.479       6.367       6.195       6.011       5.807       5.538    
        5.288       5.089       4.824       4.493       4.162       3.847       3.583       3.328       3.007       2.703    
        2.448       2.167       1.851       1.573       1.310       1.067      0.7634      0.4635      0.2430       0.000    
  35    10.00       9.972       9.942       9.886       9.783       9.662       9.554       9.432       9.287       9.051    
        8.788       8.533       8.279       8.082       7.948       7.836       7.690       7.515       7.314       7.120    
        6.965       6.820       6.693       6.600       6.514       6.400       6.211       5.993       5.752       5.473    
        5.283       5.076       4.806       4.563       4.287       3.955       3.663       3.448       3.145       2.821    
        2.575       2.287       1.971       1.697       1.423       1.157      0.8751      0.5800      0.2869       0.000    
  36    10.00       9.965       9.917       9.856       9.761       9.649       9.559       9.454       9.298       9.070    
        8.786       8.515       8.335       8.186       8.053       7.911       7.739       7.561       7.348       7.096    
        6.927       6.816       6.705       6.627       6.540       6.396       6.185       5.944       5.650       5.395    
        5.232       5.064       4.831       4.597       4.365       4.069       3.778       3.550       3.279       2.926    
        2.656       2.334       2.019       1.810       1.544       1.248      0.9653      0.6569      0.3214       0.000    
  37    10.00       9.946       9.896       9.835       9.742       9.644       9.542       9.442       9.299       9.035    
        8.739       8.532       8.426       8.283       8.119       7.977       7.767       7.547       7.278       7.022    
        6.908       6.814       6.708       6.623       6.521       6.345       6.130       5.816       5.545       5.378    
        5.235       5.054       4.825       4.640       4.404       4.125       3.897       3.678       3.374       2.985    
        2.631       2.329       2.110       1.894       1.627       1.347       1.064      0.7244      0.3978       0.000    
  38    10.00       9.939       9.874       9.810       9.729       9.636       9.528       9.420       9.256       9.009    
        8.788       8.624       8.489       8.359       8.183       7.954       7.718       7.464       7.164       6.992    
        6.899       6.778       6.669       6.598       6.482       6.284       5.967       5.671       5.528       5.400    
        5.250       5.058       4.851       4.668       4.437       4.183       3.996       3.773       3.385       2.958    
        2.651       2.399       2.181       1.957       1.721       1.436       1.154      0.8378      0.4140       0.000    
  39    10.00       9.922       9.858       9.801       9.723       9.617       9.504       9.392       9.238       9.036    
        8.863       8.738       8.587       8.409       8.156       7.870       7.605       7.309       7.096       6.983    
        6.846       6.705       6.623       6.554       6.442       6.177       5.858       5.679       5.548       5.416    
        5.246       5.065       4.865       4.681       4.507       4.298       4.053       3.783       3.401       3.003    
        2.678       2.418       2.247       2.059       1.794       1.512       1.225      0.8720      0.4086       0.000    
  40    10.00       9.914       9.853       9.795       9.714       9.605       9.495       9.384       9.248       9.080    
        8.937       8.827       8.642       8.367       8.050       7.763       7.483       7.229       7.073       6.934    
        6.776       6.653       6.583       6.497       6.347       6.111       5.895       5.715       5.568       5.431    
        5.265       5.070       4.882       4.728       4.575       4.364       4.081       3.798       3.410       2.983    
        2.679       2.474       2.285       2.125       1.846       1.536       1.275      0.8744      0.4071       0.000    
  41    10.00       9.921       9.851       9.781       9.694       9.609       9.516       9.414       9.279       9.126    
        8.990       8.857       8.619       8.293       7.966       7.698       7.423       7.181       7.028       6.877    
        6.718       6.611       6.533       6.431       6.275       6.098       5.952       5.778       5.595       5.433    
        5.274       5.098       4.918       4.785       4.622       4.411       4.128       3.738       3.293       2.964    
        2.743       2.544       2.349       2.126       1.836       1.540       1.316      0.9316      0.4224       0.000    
  42    10.00       9.921       9.841       9.780       9.716       9.637       9.538       9.422       9.307       9.190    
        9.017       8.789       8.513       8.202       7.899       7.654       7.385       7.149       6.985       6.815    
        6.667       6.572       6.485       6.393       6.252       6.128       6.005       5.808       5.602       5.457    
        5.326       5.134       4.941       4.812       4.661       4.436       4.088       3.628       3.221       2.976    
        2.810       2.632       2.383       2.086       1.808       1.576       1.344      0.9825      0.4848       0.000    
  43    10.00       9.914       9.847       9.794       9.744       9.668       9.571       9.460       9.332       9.151    
        8.929       8.695       8.436       8.112       7.840       7.614       7.372       7.134       6.926       6.768    
        6.635       6.539       6.466       6.389       6.270       6.142       6.016       5.812       5.633       5.526    
        5.368       5.160       4.974       4.841       4.665       4.374       3.971       3.536       3.239       3.051    
        2.874       2.669       2.364       2.060       1.813       1.590       1.390      0.9964      0.4553       0.000    
  44    10.00       9.914       9.856       9.808       9.747       9.690       9.610       9.463       9.274       9.065    
        8.878       8.641       8.329       8.058       7.840       7.581       7.316       7.066       6.860       6.721    
        6.623       6.541       6.467       6.388       6.284       6.153       5.984       5.815       5.695       5.567    
        5.425       5.244       5.030       4.827       4.613       4.287       3.865       3.506       3.277       3.095    
        2.917       2.674       2.379       2.116       1.852       1.613       1.367      0.8996      0.4137       0.000    
  45    10.00       9.924       9.869       9.807       9.748       9.698       9.568       9.393       9.202       9.022    
        8.868       8.552       8.228       8.031       7.797       7.509       7.222       6.990       6.823       6.713    
        6.638       6.561       6.479       6.386       6.271       6.143       6.000       5.870       5.764       5.631    
        5.466       5.279       5.059       4.803       4.546       4.196       3.799       3.517       3.343       3.155    
        2.918       2.640       2.387       2.147       1.914       1.675       1.277      0.7994      0.4023       0.000    
  46    10.00       9.938       9.880       9.808       9.740       9.642       9.500       9.367       9.207       9.015    
        8.760       8.459       8.199       7.949       7.700       7.421       7.154       6.983       6.846       6.740    
        6.665       6.590       6.486       6.370       6.259       6.151       6.038       5.919       5.812       5.695    
        5.546       5.349       5.099       4.795       4.428       4.064       3.771       3.572       3.389       3.194    
        2.913       2.617       2.365       2.175       1.952       1.641       1.189      0.7636      0.3764       0.000    
  47    10.00       9.950       9.894       9.822       9.707       9.578       9.456       9.353       9.205       8.952    
        8.646       8.370       8.144       7.935       7.671       7.368       7.132       6.970       6.860       6.772    
        6.690       6.602       6.494       6.371       6.263       6.178       6.085       5.967       5.843       5.729    
        5.599       5.434       5.103       4.676       4.319       4.057       3.811       3.640       3.478       3.208    
        2.866       2.552       2.324       2.193       1.946       1.566       1.124      0.7366      0.3721       0.000    
  48    10.00       9.955       9.898       9.791       9.672       9.561       9.439       9.333       9.184       8.898    
        8.565       8.334       8.149       7.893       7.584       7.311       7.134       6.971       6.862       6.793    
        6.710       6.604       6.487       6.375       6.286       6.218       6.135       6.005       5.862       5.738    
        5.602       5.403       5.058       4.704       4.385       4.097       3.877       3.701       3.495       3.152    
        2.784       2.542       2.361       2.128       1.804       1.467       1.089      0.7419      0.3927       0.000    
  49    10.00       9.953       9.867       9.763       9.673       9.554       9.435       9.324       9.136       8.833    
        8.535       8.314       8.083       7.824       7.592       7.337       7.091       6.939       6.872       6.807    
        6.729       6.607       6.472       6.375       6.307       6.256       6.161       6.010       5.860       5.748    
        5.601       5.339       5.035       4.784       4.517       4.198       3.915       3.697       3.454       3.087    
        2.790       2.578       2.328       1.992       1.706       1.402       1.071      0.7541      0.3840       0.000    
  50    10.00       9.940       9.845       9.751       9.679       9.568       9.436       9.294       9.091       8.852    
        8.550       8.254       8.013       7.807       7.620       7.335       7.054       6.939       6.880       6.818    
        6.742       6.606       6.461       6.372       6.318       6.272       6.165       6.003       5.860       5.746    
        5.585       5.310       5.075       4.861       4.572       4.254       3.967       3.679       3.329       3.004    
        2.847       2.624       2.259       1.921       1.681       1.391       1.103      0.7365      0.3025       0.000    

 HEAD WILL BE SAVED ON UNIT   51 AT END OF TIME STEP  52, STRESS PERIOD    2

 DRAWDOWN WILL BE SAVED ON UNIT   52 AT END OF TIME STEP  52, STRESS PERIOD    2
1
  VOLUMETRIC BUDGET FOR ENTIRE MODEL AT END OF TIME STEP 52 IN STRESS PERIOD   2
  ------------------------------------------------------------------------------

     CUMULATIVE VOLUMES      L**3       RATES FOR THIS TIME STEP      L**3/T
     ------------------                 ------------------------

           IN:                                      IN:
           ---                                      ---
             STORAGE =       25356.4180               STORAGE =         456.2690
       CONSTANT HEAD =       29241.8652         CONSTANT HEAD =         582.0200
               WELLS =           0.0000                 WELLS =           0.0000

            TOTAL IN =       54598.2812              TOTAL IN =        1038.2889

          OUT:                                     OUT:
          ----                                     ----
             STORAGE =       9.3745E-03               STORAGE =           0.0000
       CONSTANT HEAD =       28598.2617         CONSTANT HEAD =         538.2896
               WELLS =       26000.0000                 WELLS =         500.0000

           TOTAL OUT =       54598.2695             TOTAL OUT =        1038.2896

            IN - OUT =       1.1719E-02              IN - OUT =      -6.1035E-04

 PERCENT DISCREPANCY =           0.00     PERCENT DISCREPANCY =           0.00






          TIME SUMMARY AT END OF TIME STEP  52 IN STRESS PERIOD    2
                    SECONDS     MINUTES      HOURS       DAYS        YEARS
                    -----------------------------------------------------------
   TIME STEP LENGTH  86400.      1440.0      24.000      1.0000     2.73785E-03
 STRESS PERIOD TIME 4.49280E+06  74880.      1248.0      52.000     0.14237    
         TOTAL TIME 4.57920E+06  76320.      1272.0      53.000     0.14511    
1
 
 SOLVING FOR HEAD 

 OUTPUT CONTROL FOR STRESS PERIOD    2   TIME STEP  53
    SAVE HEAD FOR ALL LAYERS
    SAVE DRAWDOWN FOR ALL LAYERS
    SAVE BUDGET
    PRINT HEAD FOR ALL LAYERS
    PRINT BUDGET
 UBDSV1 SAVING "         STORAGE" ON UNIT  53 AT TIME STEP 53, STRESS PERIOD   2
 UBDSV2 SAVING "   CONSTANT HEAD" ON UNIT  53 AT TIME STEP 53, STRESS PERIOD   2
 UBDSV1 SAVING "FLOW RIGHT FACE " ON UNIT  53 AT TIME STEP 53, STRESS PERIOD   2
 UBDSV1 SAVING "FLOW FRONT FACE " ON UNIT  53 AT TIME STEP 53, STRESS PERIOD   2
1
              HEAD IN LAYER   1 AT END OF TIME STEP  53 IN STRESS PERIOD    2
  ---------------------------------------------------------------------------

            1           2           3           4           5           6           7           8           9          10
           11          12          13          14          15          16          17          18          19          20
           21          22          23          24          25          26          27          28          29          30
           31          32          33          34          35          36          37          38          39          40
           41          42          43          44          45          46          47          48          49          50
 ........................................................................................................................
   1    10.00       9.956       9.897       9.837       9.788       9.727       9.668       9.605       9.522       9.453    
        9.413       9.372       9.327       9.283       9.211       9.132       9.047       8.980       8.949       8.916    
        8.875       8.840       8.804       8.758       8.695       8.584       8.452       8.323       8.174       8.027    
        7.817       7.483       7.091       6.677       6.213       5.784       5.420       5.083       4.621       4.120    
        3.694       3.273       2.691       2.140       1.754       1.367       1.042      0.8328      0.5523       0.000    
   2    10.00       9.956       9.902       9.843       9.790       9.734       9.668       9.586       9.506       9.453    
        9.417       9.380       9.346       9.290       9.208       9.127       9.048       8.983       8.950       8.912    
        8.870       8.843       8.814       8.766       8.693       8.588       8.454       8.320       8.181       8.033    
        7.806       7.463       7.049       6.582       6.113       5.700       5.375       5.043       4.576       4.106    
        3.675       3.169       2.644       2.208       1.824       1.464       1.093      0.7909      0.4223       0.000    
   3    10.00       9.952       9.900       9.846       9.792       9.728       9.646       9.568       9.517       9.469    
        9.427       9.395       9.361       9.309       9.226       9.125       9.042       8.988       8.947       8.909    
        8.874       8.845       8.816       8.756       8.678       8.571       8.444       8.343       8.196       8.021    
        7.729       7.329       6.889       6.434       6.004       5.619       5.329       4.988       4.481       4.024    
        3.666       3.205       2.722       2.303       1.905       1.541       1.103      0.6786      0.2985       0.000    
   4    10.00       9.956       9.903       9.844       9.777       9.703       9.625       9.567       9.523       9.478    
        9.442       9.415       9.377       9.320       9.245       9.134       9.042       8.992       8.948       8.912    
        8.872       8.838       8.801       8.736       8.657       8.554       8.430       8.316       8.201       7.983    
        7.605       7.116       6.644       6.297       5.976       5.604       5.231       4.798       4.370       4.037    
        3.719       3.311       2.828       2.415       1.998       1.557       1.052      0.6026      0.2807       0.000    
   5    10.00       9.952       9.897       9.829       9.760       9.691       9.623       9.574       9.529       9.490    
        9.458       9.429       9.385       9.319       9.231       9.130       9.051       8.996       8.951       8.901    
        8.855       8.819       8.773       8.707       8.632       8.514       8.391       8.293       8.179       7.899    
        7.402       6.863       6.475       6.211       5.921       5.545       5.121       4.693       4.391       4.109    
        3.822       3.402       2.899       2.538       2.114       1.537      0.9575      0.5561      0.2798       0.000    
   6    10.00       9.941       9.875       9.822       9.757       9.686       9.628       9.584       9.537       9.501    
        9.472       9.437       9.380       9.303       9.227       9.144       9.058       8.990       8.932       8.875    
        8.834       8.796       8.753       8.683       8.573       8.460       8.368       8.262       8.069       7.666    
        7.112       6.625       6.328       6.131       5.897       5.485       5.024       4.686       4.464       4.218    
        3.940       3.560       3.061       2.613       2.088       1.470      0.8586      0.4891      0.2733       0.000    
   7    10.00       9.924       9.862       9.810       9.748       9.697       9.642       9.596       9.556       9.518    
        9.480       9.429       9.360       9.286       9.217       9.148       9.054       8.961       8.899       8.852    
        8.812       8.771       8.726       8.633       8.520       8.429       8.328       8.157       7.831       7.318    
        6.795       6.415       6.232       6.080       5.782       5.374       5.071       4.778       4.538       4.368    
        4.087       3.695       3.161       2.581       1.934       1.225      0.7197      0.4966      0.2515       0.000    
   8    10.00       9.919       9.862       9.806       9.751       9.705       9.658       9.614       9.576       9.539    
        9.483       9.410       9.337       9.272       9.207       9.122       9.010       8.922       8.875       8.830    
        8.783       8.748       8.675       8.575       8.474       8.366       8.177       7.904       7.458       7.014    
        6.626       6.328       6.190       6.003       5.667       5.354       5.103       4.889       4.697       4.497    
        4.206       3.723       3.107       2.445       1.707       1.106      0.7616      0.4872      0.2245       0.000    
   9    10.00       9.923       9.859       9.804       9.764       9.726       9.680       9.636       9.593       9.550    
        9.479       9.390       9.315       9.248       9.171       9.075       8.973       8.896       8.847       8.800    
        8.757       8.701       8.599       8.506       8.402       8.251       7.976       7.566       7.125       6.808    
        6.503       6.286       6.132       5.884       5.575       5.333       5.156       4.993       4.830       4.612    
        4.252       3.749       3.093       2.354       1.675       1.145      0.7770      0.4833      0.2396       0.000    
  10    10.00       9.921       9.856       9.811       9.776       9.739       9.698       9.660       9.610       9.543    
        9.456       9.366       9.293       9.220       9.138       9.027       8.925       8.863       8.820       8.773    
        8.729       8.635       8.526       8.423       8.279       8.053       7.641       7.198       6.852       6.614    
        6.432       6.256       6.048       5.795       5.533       5.352       5.220       5.086       4.903       4.651    
        4.264       3.713       3.012       2.351       1.814       1.312      0.8321      0.5132      0.2704       0.000    
  11    10.00       9.911       9.861       9.823       9.788       9.755       9.719       9.668       9.596       9.521    
        9.435       9.347       9.276       9.179       9.067       8.970       8.897       8.839       8.795       8.743    
        8.663       8.542       8.386       8.233       7.981       7.645       7.280       6.987       6.709       6.538    
        6.386       6.155       5.921       5.733       5.560       5.428       5.296       5.124       4.908       4.612    
        4.250       3.762       3.053       2.450       1.973       1.491      0.9589      0.5085      0.2041       0.000    
  12    10.00       9.919       9.869       9.829       9.800       9.765       9.726       9.657       9.572       9.495    
        9.413       9.325       9.230       9.112       9.020       8.937       8.860       8.812       8.755       8.675    
        8.520       8.314       8.094       7.866       7.554       7.297       7.106       6.806       6.577       6.443    
        6.281       6.067       5.882       5.725       5.613       5.493       5.337       5.142       4.884       4.574    
        4.217       3.740       3.089       2.551       2.119       1.598       1.009      0.4811      0.1600       0.000    
  13    10.00       9.937       9.891       9.848       9.810       9.770       9.712       9.627       9.539       9.463    
        9.376       9.288       9.188       9.067       8.961       8.878       8.823       8.761       8.681       8.493    
        8.210       7.960       7.722       7.437       7.193       7.078       6.842       6.570       6.454       6.343    
        6.170       5.985       5.853       5.746       5.654       5.544       5.366       5.123       4.871       4.550    
        4.194       3.709       3.038       2.534       2.133       1.564      0.9399      0.4352      0.1257       0.000    
  14    10.00       9.954       9.912       9.867       9.821       9.761       9.677       9.587       9.508       9.421    
        9.335       9.254       9.135       8.999       8.903       8.836       8.747       8.652       8.464       8.133    
        7.831       7.607       7.294       7.061       6.951       6.822       6.579       6.422       6.306       6.199    
        6.053       5.940       5.862       5.775       5.680       5.567       5.367       5.101       4.830       4.504    
        4.122       3.536       2.903       2.496       2.005       1.459      0.9269      0.3975      0.1023       0.000    
  15    10.00       9.963       9.921       9.876       9.823       9.733       9.629       9.551       9.472       9.388    
        9.323       9.228       9.071       8.923       8.835       8.717       8.598       8.476       8.160       7.771    
        7.521       7.204       6.918       6.830       6.763       6.594       6.400       6.246       6.163       6.085    
        5.998       5.934       5.873       5.801       5.700       5.562       5.331       5.029       4.744       4.442    
        4.029       3.458       2.910       2.363       1.769       1.280      0.7971      0.3503      0.1051       0.000    
  16    10.00       9.973       9.932       9.878       9.796       9.686       9.596       9.532       9.461       9.375    
        9.287       9.151       8.970       8.828       8.700       8.561       8.479       8.233       7.773       7.414    
        7.162       6.849       6.743       6.690       6.565       6.352       6.195       6.124       6.098       6.046    
        5.982       5.930       5.882       5.805       5.685       5.513       5.236       4.961       4.736       4.411    
        3.941       3.325       2.695       2.086       1.582       1.098      0.6792      0.3326      0.1122       0.000    
  17    10.00       9.973       9.930       9.859       9.758       9.647       9.572       9.513       9.434       9.338    
        9.192       9.019       8.856       8.700       8.540       8.406       8.205       7.792       7.362       7.113    
        6.865       6.673       6.590       6.469       6.273       6.114       6.073       6.066       6.050       6.005    
        5.957       5.917       5.874       5.802       5.631       5.395       5.156       4.962       4.748       4.339    
        3.710       3.081       2.480       1.882       1.353      0.8883      0.5693      0.2974      0.1222       0.000    
  18    10.00       9.967       9.916       9.832       9.705       9.616       9.557       9.477       9.387       9.253    
        9.076       8.922       8.757       8.547       8.338       8.115       7.820       7.400       7.078       6.860    
        6.658       6.497       6.370       6.196       6.063       6.022       6.012       6.010       5.987       5.955    
        5.927       5.897       5.847       5.726       5.547       5.346       5.145       4.971       4.671       4.125    
        3.480       2.811       2.168       1.677       1.256      0.8328      0.4890      0.2460      0.1179       0.000    
  19    10.00       9.959       9.904       9.781       9.655       9.603       9.537       9.439       9.327       9.182    
        9.021       8.875       8.637       8.319       8.069       7.839       7.482       7.099       6.881       6.714    
        6.505       6.310       6.169       6.036       5.971       5.957       5.953       5.935       5.907       5.897    
        5.883       5.858       5.786       5.669       5.518       5.323       5.140       4.890       4.375       3.807    
        3.286       2.593       1.982       1.593       1.174      0.7514      0.4415      0.2505      0.1283       0.000    
  20    10.00       9.950       9.857       9.732       9.640       9.583       9.512       9.407       9.282       9.151    
        8.985       8.762       8.407       8.089       7.867       7.582       7.227       7.017       6.819       6.585    
        6.356       6.181       6.035       5.941       5.894       5.870       5.842       5.835       5.821       5.827    
        5.826       5.804       5.728       5.619       5.464       5.295       5.067       4.610       4.052       3.597    
        3.031       2.392       1.935       1.558       1.135      0.6668      0.3856      0.2607      0.1343       0.000    
  21    10.00       9.918       9.818       9.713       9.623       9.563       9.486       9.364       9.240       9.116    
        8.894       8.553       8.190       7.950       7.700       7.401       7.136       6.938       6.698       6.451    
        6.231       6.060       5.932       5.834       5.768       5.719       5.703       5.712       5.716       5.732    
        5.749       5.719       5.643       5.540       5.384       5.197       4.839       4.357       3.914       3.361    
        2.824       2.320       1.933       1.551      0.9561      0.5398      0.3903      0.2945      0.1412       0.000    
  22    10.00       9.896       9.777       9.683       9.612       9.540       9.431       9.317       9.208       9.036    
        8.751       8.366       8.076       7.859       7.579       7.272       7.018       6.807       6.588       6.355    
        6.136       5.955       5.784       5.632       5.546       5.527       5.545       5.561       5.598       5.623    
        5.644       5.611       5.548       5.440       5.283       5.096       4.730       4.263       3.683       3.148    
        2.758       2.355       1.890       1.251      0.7456      0.5381      0.4090      0.2723      0.1007       0.000    
  23    10.00       9.866       9.749       9.676       9.600       9.493       9.375       9.289       9.150       8.935    
        8.601       8.271       8.063       7.792       7.428       7.122       6.922       6.751       6.546       6.294    
        6.064       5.852       5.607       5.321       5.113       5.157       5.293       5.382       5.463       5.518    
        5.539       5.520       5.460       5.359       5.211       5.000       4.629       4.051       3.470       3.091    
        2.732       2.224       1.556       1.008      0.7336      0.5487      0.3925      0.2315      9.2140E-02   0.000    
  24    10.00       9.845       9.761       9.672       9.564       9.452       9.362       9.267       9.133       8.847    
        8.533       8.290       8.055       7.693       7.294       7.073       6.905       6.736       6.504       6.267    
        6.062       5.793       5.402       4.859       4.197       4.469       4.875       5.158       5.325       5.411    
        5.452       5.439       5.391       5.280       5.115       4.850       4.380       3.832       3.395       3.001    
        2.560       1.993       1.397      0.9774      0.7350      0.5345      0.3580      0.2509      0.1231       0.000    
  25    10.00       9.862       9.776       9.665       9.552       9.449       9.359       9.271       9.071       8.793    
        8.551       8.305       7.997       7.600       7.304       7.106       6.916       6.713       6.501       6.297    
        6.061       5.803       5.245       4.213       2.373       3.745       4.489       4.932       5.205       5.347    
        5.396       5.388       5.330       5.177       4.951       4.590       4.146       3.716       3.341       2.879    
        2.347       1.805       1.302      0.9686      0.7618      0.5554      0.3772      0.2627      0.1635       0.000    
  26    10.00       9.881       9.797       9.679       9.559       9.465       9.368       9.239       9.041       8.847    
        8.621       8.284       7.907       7.586       7.362       7.170       6.949       6.699       6.494       6.323    
        6.127       5.873       5.392       4.633       3.792       4.148       4.599       4.930       5.184       5.334    
        5.371       5.351       5.256       5.072       4.821       4.477       3.987       3.578       3.227       2.666    
        2.065       1.590       1.289       1.058      0.8214      0.5996      0.4112      0.2854      0.1667       0.000    
  27    10.00       9.905       9.801       9.695       9.591       9.480       9.372       9.242       9.078       8.902    
        8.616       8.237       7.906       7.640       7.452       7.232       6.944       6.684       6.524       6.384    
        6.231       5.996       5.632       5.185       4.733       4.706       4.879       5.092       5.278       5.362    
        5.365       5.329       5.217       5.016       4.722       4.255       3.793       3.455       2.922       2.333    
        1.865       1.560       1.334       1.131      0.8980      0.6544      0.4467      0.3141      0.1982       0.000    
  28    10.00       9.911       9.826       9.730       9.628       9.510       9.391       9.265       9.123       8.916    
        8.583       8.253       7.965       7.704       7.505       7.289       7.054       6.804       6.578       6.433    
        6.312       6.145       5.910       5.587       5.312       5.151       5.188       5.322       5.384       5.402    
        5.375       5.314       5.175       4.918       4.528       4.043       3.645       3.170       2.613       2.195    
        1.862       1.603       1.382       1.170      0.9435      0.7141      0.5067      0.3576      0.2044       0.000    
  29    10.00       9.917       9.834       9.758       9.658       9.552       9.436       9.307       9.150       8.875    
        8.564       8.284       8.011       7.792       7.566       7.336       7.123       6.923       6.707       6.517    
        6.386       6.258       6.103       5.911       5.651       5.523       5.509       5.514       5.514       5.466    
        5.392       5.271       5.103       4.770       4.292       3.864       3.460       2.964       2.519       2.213    
        1.942       1.659       1.408       1.205       1.001      0.7552      0.5355      0.3737      0.2072       0.000    
  30    10.00       9.928       9.859       9.793       9.703       9.599       9.494       9.347       9.138       8.887    
        8.573       8.270       8.046       7.827       7.613       7.406       7.234       7.050       6.839       6.638    
        6.478       6.370       6.238       6.109       5.968       5.851       5.808       5.715       5.648       5.538    
        5.386       5.179       4.940       4.588       4.212       3.810       3.378       2.914       2.576       2.298    
        1.977       1.692       1.474       1.243      0.9991      0.7815      0.5708      0.3969      0.2230       0.000    
  31    10.00       9.943       9.886       9.823       9.756       9.672       9.553       9.371       9.132       8.868    
        8.566       8.295       8.092       7.878       7.679       7.489       7.319       7.174       6.963       6.762    
        6.615       6.500       6.397       6.296       6.220       6.111       5.994       5.888       5.750       5.578    
        5.334       5.066       4.820       4.533       4.174       3.748       3.310       2.929       2.691       2.425    
        2.069       1.756       1.507       1.272       1.046      0.8222      0.6049      0.4177      0.2163       0.000    
  32    10.00       9.951       9.910       9.855       9.792       9.712       9.586       9.376       9.160       8.910    
        8.599       8.349       8.157       7.937       7.727       7.571       7.423       7.253       7.084       6.887    
        6.735       6.613       6.519       6.430       6.343       6.255       6.118       5.981       5.803       5.565    
        5.284       5.016       4.760       4.484       4.130       3.747       3.403       3.078       2.805       2.501    
        2.172       1.863       1.600       1.330       1.084      0.8942      0.6670      0.4099      0.1830       0.000    
  33    10.00       9.958       9.926       9.880       9.815       9.730       9.566       9.360       9.185       8.962    
        8.678       8.441       8.215       7.969       7.784       7.654       7.526       7.351       7.166       6.996    
        6.828       6.704       6.588       6.490       6.413       6.326       6.180       5.989       5.799       5.570    
        5.288       5.046       4.777       4.436       4.105       3.765       3.486       3.229       2.919       2.584    
        2.299       2.006       1.718       1.439       1.180      0.9683      0.7137      0.4119      0.1791       0.000    
  34    10.00       9.965       9.941       9.902       9.818       9.693       9.542       9.399       9.218       8.998    
        8.757       8.499       8.247       8.007       7.855       7.749       7.611       7.445       7.236       7.072    
        6.921       6.765       6.641       6.544       6.466       6.355       6.183       6.000       5.797       5.531    
        5.281       5.083       4.819       4.489       4.159       3.845       3.581       3.327       3.006       2.702    
        2.448       2.166       1.851       1.573       1.310       1.067      0.7634      0.4635      0.2430       0.000    
  35    10.00       9.971       9.941       9.885       9.782       9.661       9.552       9.429       9.284       9.046    
        8.783       8.526       8.272       8.074       7.939       7.827       7.681       7.505       7.303       7.109    
        6.955       6.809       6.682       6.590       6.504       6.389       6.201       5.984       5.745       5.467    
        5.278       5.071       4.803       4.561       4.284       3.954       3.661       3.447       3.145       2.821    
        2.575       2.286       1.970       1.697       1.423       1.157      0.8750      0.5799      0.2869       0.000    
  36    10.00       9.965       9.917       9.856       9.760       9.647       9.557       9.452       9.295       9.067    
        8.781       8.509       8.329       8.178       8.045       7.902       7.730       7.552       7.338       7.087    
        6.918       6.807       6.696       6.618       6.531       6.387       6.177       5.937       5.644       5.391    
        5.229       5.061       4.828       4.595       4.364       4.068       3.777       3.549       3.279       2.925    
        2.655       2.334       2.018       1.810       1.544       1.248      0.9652      0.6568      0.3214       0.000    
  37    10.00       9.946       9.895       9.834       9.741       9.643       9.540       9.440       9.296       9.031    
        8.734       8.527       8.420       8.276       8.111       7.969       7.759       7.539       7.270       7.014    
        6.900       6.807       6.700       6.615       6.513       6.338       6.124       5.811       5.542       5.375    
        5.232       5.051       4.823       4.638       4.403       4.124       3.896       3.677       3.373       2.985    
        2.631       2.329       2.110       1.893       1.627       1.347       1.064      0.7244      0.3977       0.000    
  38    10.00       9.939       9.874       9.810       9.728       9.635       9.527       9.418       9.254       9.006    
        8.784       8.619       8.483       8.353       8.176       7.947       7.711       7.457       7.158       6.985    
        6.892       6.771       6.663       6.591       6.476       6.278       5.963       5.668       5.525       5.398    
        5.248       5.056       4.849       4.666       4.436       4.181       3.995       3.772       3.385       2.957    
        2.650       2.398       2.181       1.957       1.721       1.436       1.154      0.8377      0.4140       0.000    
  39    10.00       9.922       9.858       9.800       9.722       9.616       9.502       9.390       9.236       9.033    
        8.860       8.734       8.582       8.404       8.150       7.864       7.599       7.304       7.090       6.977    
        6.840       6.700       6.618       6.549       6.437       6.173       5.855       5.676       5.545       5.413    
        5.244       5.063       4.864       4.680       4.506       4.297       4.052       3.782       3.400       3.002    
        2.678       2.418       2.246       2.059       1.794       1.511       1.225      0.8719      0.4085       0.000    
  40    10.00       9.913       9.852       9.794       9.713       9.605       9.493       9.383       9.246       9.077    
        8.934       8.824       8.638       8.363       8.046       7.759       7.478       7.225       7.069       6.930    
        6.771       6.649       6.578       6.493       6.343       6.108       5.892       5.713       5.566       5.429    
        5.263       5.069       4.880       4.727       4.574       4.363       4.080       3.798       3.410       2.983    
        2.679       2.473       2.285       2.124       1.845       1.536       1.275      0.8743      0.4071       0.000    
  41    10.00       9.921       9.851       9.780       9.694       9.608       9.515       9.412       9.277       9.124    
        8.987       8.854       8.616       8.289       7.963       7.695       7.419       7.177       7.024       6.873    
        6.715       6.607       6.529       6.428       6.272       6.096       5.950       5.776       5.593       5.432    
        5.273       5.097       4.917       4.783       4.621       4.410       4.127       3.737       3.292       2.963    
        2.743       2.544       2.349       2.126       1.835       1.540       1.316      0.9315      0.4224       0.000    
  42    10.00       9.921       9.841       9.779       9.716       9.637       9.538       9.421       9.306       9.188    
        9.015       8.787       8.511       8.199       7.896       7.651       7.382       7.146       6.982       6.812    
        6.664       6.569       6.483       6.390       6.249       6.126       6.003       5.806       5.600       5.455    
        5.325       5.133       4.940       4.811       4.660       4.435       4.087       3.628       3.220       2.975    
        2.809       2.631       2.383       2.086       1.807       1.576       1.344      0.9825      0.4847       0.000    
  43    10.00       9.914       9.847       9.794       9.743       9.667       9.570       9.459       9.331       9.150    
        8.927       8.693       8.434       8.110       7.837       7.611       7.369       7.132       6.924       6.765    
        6.632       6.537       6.463       6.387       6.268       6.140       6.014       5.811       5.632       5.525    
        5.366       5.159       4.973       4.839       4.663       4.373       3.970       3.535       3.238       3.050    
        2.874       2.669       2.364       2.059       1.813       1.590       1.390      0.9963      0.4553       0.000    
  44    10.00       9.914       9.855       9.808       9.747       9.690       9.610       9.462       9.273       9.063    
        8.876       8.639       8.327       8.056       7.838       7.579       7.314       7.064       6.858       6.719    
        6.621       6.539       6.465       6.386       6.282       6.151       5.983       5.814       5.693       5.566    
        5.423       5.242       5.029       4.826       4.612       4.286       3.864       3.506       3.276       3.095    
        2.916       2.674       2.379       2.115       1.852       1.613       1.367      0.8995      0.4137       0.000    
  45    10.00       9.923       9.869       9.807       9.748       9.698       9.567       9.392       9.201       9.021    
        8.867       8.551       8.226       8.029       7.795       7.507       7.220       6.988       6.821       6.711    
        6.636       6.559       6.477       6.384       6.269       6.141       5.999       5.869       5.762       5.630    
        5.465       5.278       5.058       4.802       4.545       4.195       3.799       3.517       3.342       3.155    
        2.917       2.640       2.387       2.146       1.913       1.675       1.277      0.7993      0.4023       0.000    
  46    10.00       9.938       9.880       9.807       9.739       9.642       9.499       9.367       9.206       9.014    
        8.759       8.458       8.198       7.947       7.698       7.420       7.153       6.982       6.845       6.738    
        6.663       6.588       6.484       6.368       6.257       6.149       6.037       5.917       5.810       5.693    
        5.545       5.347       5.098       4.794       4.428       4.064       3.771       3.571       3.389       3.194    
        2.913       2.617       2.365       2.175       1.952       1.641       1.189      0.7635      0.3764       0.000    
  47    10.00       9.950       9.894       9.822       9.706       9.578       9.456       9.352       9.204       8.951    
        8.645       8.369       8.143       7.934       7.669       7.366       7.131       6.968       6.859       6.770    
        6.689       6.600       6.492       6.369       6.262       6.176       6.083       5.965       5.842       5.727    
        5.598       5.432       5.101       4.676       4.318       4.056       3.811       3.639       3.478       3.208    
        2.865       2.552       2.324       2.193       1.946       1.566       1.124      0.7365      0.3721       0.000    
  48    10.00       9.955       9.898       9.791       9.672       9.560       9.438       9.333       9.184       8.898    
        8.564       8.333       8.147       7.891       7.583       7.310       7.132       6.969       6.860       6.791    
        6.708       6.602       6.486       6.373       6.284       6.217       6.133       6.003       5.860       5.737    
        5.601       5.402       5.057       4.704       4.385       4.096       3.877       3.701       3.494       3.152    
        2.783       2.542       2.361       2.128       1.804       1.467       1.089      0.7418      0.3927       0.000    
  49    10.00       9.953       9.866       9.763       9.673       9.554       9.435       9.324       9.136       8.833    
        8.534       8.313       8.082       7.823       7.590       7.336       7.089       6.937       6.871       6.806    
        6.727       6.606       6.470       6.373       6.305       6.255       6.159       6.009       5.859       5.747    
        5.599       5.337       5.033       4.783       4.516       4.197       3.914       3.697       3.454       3.087    
        2.790       2.578       2.328       1.992       1.705       1.402       1.071      0.7540      0.3840       0.000    
  50    10.00       9.940       9.845       9.751       9.679       9.567       9.435       9.294       9.090       8.851    
        8.549       8.253       8.012       7.805       7.619       7.333       7.052       6.937       6.879       6.816    
        6.741       6.604       6.459       6.371       6.317       6.270       6.164       6.002       5.859       5.744    
        5.584       5.309       5.074       4.860       4.571       4.254       3.967       3.678       3.329       3.004    
        2.846       2.624       2.258       1.921       1.681       1.391       1.103      0.7365      0.3025       0.000    

 HEAD WILL BE SAVED ON UNIT   51 AT END OF TIME STEP  53, STRESS PERIOD    2

 DRAWDOWN WILL BE SAVED ON UNIT   52 AT END OF TIME STEP  53, STRESS PERIOD    2
1
  VOLUMETRIC BUDGET FOR ENTIRE MODEL AT END OF TIME STEP 53 IN STRESS PERIOD   2
  ------------------------------------------------------------------------------

     CUMULATIVE VOLUMES      L**3       RATES FOR THIS TIME STEP      L**3/T
     ------------------                 ------------------------

           IN:                                      IN:
           ---                                      ---
             STORAGE =       25810.8164               STORAGE =         454.3992
       CONSTANT HEAD =       29825.6270         CONSTANT HEAD =         583.7613
               WELLS =           0.0000                 WELLS =           0.0000

            TOTAL IN =       55636.4453              TOTAL IN =        1038.1605

          OUT:                                     OUT:
          ----                                     ----
             STORAGE =       9.3745E-03               STORAGE =           0.0000
       CONSTANT HEAD =       29136.4219         CONSTANT HEAD =         538.1602
               WELLS =       26500.0000                 WELLS =         500.0000

           TOTAL OUT =       55636.4297             TOTAL OUT =        1038.1602

            IN - OUT =       1.5625E-02              IN - OUT =       3.6621E-04

 PERCENT DISCREPANCY =           0.00     PERCENT DISCREPANCY =           0.00






          TIME SUMMARY AT END OF TIME STEP  53 IN STRESS PERIOD    2
                    SECONDS     MINUTES      HOURS       DAYS        YEARS
                    -----------------------------------------------------------
   TIME STEP LENGTH  86400.      1440.0      24.000      1.0000     2.73785E-03
 STRESS PERIOD TIME 4.57920E+06  76320.      1272.0      53.000     0.14511    
         TOTAL TIME 4.66560E+06  77760.      1296.0      54.000     0.14784    
1
 
 SOLVING FOR HEAD 

 OUTPUT CONTROL FOR STRESS PERIOD    2   TIME STEP  54
    SAVE HEAD FOR ALL LAYERS
    SAVE DRAWDOWN FOR ALL LAYERS
    SAVE BUDGET
    PRINT HEAD FOR ALL LAYERS
    PRINT BUDGET
 UBDSV1 SAVING "         STORAGE" ON UNIT  53 AT TIME STEP 54, STRESS PERIOD   2
 UBDSV2 SAVING "   CONSTANT HEAD" ON UNIT  53 AT TIME STEP 54, STRESS PERIOD   2
 UBDSV1 SAVING "FLOW RIGHT FACE " ON UNIT  53 AT TIME STEP 54, STRESS PERIOD   2
 UBDSV1 SAVING "FLOW FRONT FACE " ON UNIT  53 AT TIME STEP 54, STRESS PERIOD   2
1
              HEAD IN LAYER   1 AT END OF TIME STEP  54 IN STRESS PERIOD    2
  ---------------------------------------------------------------------------

            1           2           3           4           5           6           7           8           9          10
           11          12          13          14          15          16          17          18          19          20
           21          22          23          24          25          26          27          28          29          30
           31          32          33          34          35          36          37          38          39          40
           41          42          43          44          45          46          47          48          49          50
 ........................................................................................................................
   1    10.00       9.956       9.896       9.837       9.787       9.726       9.667       9.604       9.520       9.451    
        9.411       9.370       9.325       9.280       9.209       9.130       9.044       8.977       8.946       8.913    
        8.872       8.836       8.800       8.755       8.691       8.581       8.448       8.319       8.171       8.023    
        7.813       7.480       7.088       6.674       6.210       5.781       5.418       5.080       4.619       4.118    
        3.692       3.271       2.690       2.139       1.753       1.366       1.042      0.8324      0.5521       0.000    
   2    10.00       9.956       9.902       9.842       9.789       9.733       9.667       9.585       9.504       9.451    
        9.415       9.378       9.344       9.288       9.205       9.124       9.045       8.980       8.947       8.909    
        8.867       8.840       8.811       8.763       8.690       8.585       8.451       8.316       8.177       8.030    
        7.803       7.460       7.046       6.578       6.110       5.697       5.372       5.041       4.573       4.103    
        3.673       3.167       2.642       2.206       1.823       1.463       1.093      0.7905      0.4221       0.000    
   3    10.00       9.951       9.900       9.845       9.791       9.727       9.645       9.567       9.515       9.467    
        9.425       9.393       9.359       9.306       9.224       9.122       9.039       8.985       8.944       8.906    
        8.871       8.842       8.813       8.752       8.674       8.568       8.441       8.339       8.192       8.018    
        7.725       7.326       6.885       6.431       6.000       5.616       5.326       4.985       4.479       4.022    
        3.664       3.203       2.720       2.302       1.904       1.540       1.103      0.6783      0.2983       0.000    
   4    10.00       9.955       9.903       9.843       9.777       9.702       9.623       9.566       9.522       9.476    
        9.440       9.413       9.375       9.318       9.242       9.131       9.039       8.988       8.944       8.908    
        8.869       8.834       8.797       8.733       8.653       8.550       8.426       8.312       8.198       7.979    
        7.601       7.112       6.640       6.293       5.972       5.600       5.228       4.795       4.367       4.034    
        3.717       3.309       2.826       2.414       1.996       1.556       1.052      0.6023      0.2805       0.000    
   5    10.00       9.952       9.897       9.828       9.760       9.690       9.622       9.573       9.527       9.488    
        9.456       9.427       9.383       9.317       9.228       9.127       9.048       8.993       8.948       8.898    
        8.851       8.816       8.769       8.703       8.629       8.510       8.387       8.289       8.174       7.895    
        7.397       6.859       6.470       6.206       5.917       5.541       5.117       4.690       4.388       4.106    
        3.819       3.399       2.897       2.536       2.112       1.536      0.9570      0.5559      0.2796       0.000    
   6    10.00       9.941       9.875       9.821       9.757       9.685       9.627       9.582       9.536       9.500    
        9.470       9.435       9.378       9.301       9.225       9.141       9.055       8.987       8.929       8.871    
        8.830       8.792       8.749       8.680       8.569       8.455       8.364       8.257       8.065       7.661    
        7.107       6.620       6.323       6.125       5.892       5.480       5.020       4.682       4.460       4.214    
        3.937       3.557       3.059       2.611       2.086       1.469      0.8582      0.4889      0.2731       0.000    
   7    10.00       9.923       9.862       9.810       9.748       9.696       9.641       9.594       9.555       9.517    
        9.478       9.428       9.358       9.283       9.215       9.145       9.051       8.958       8.895       8.848    
        8.808       8.767       8.722       8.629       8.516       8.425       8.324       8.152       7.826       7.312    
        6.789       6.409       6.226       6.074       5.776       5.368       5.066       4.773       4.534       4.364    
        4.084       3.692       3.159       2.579       1.933       1.224      0.7193      0.4964      0.2514       0.000    
   8    10.00       9.919       9.861       9.806       9.750       9.704       9.657       9.612       9.574       9.537    
        9.481       9.408       9.335       9.269       9.205       9.119       9.006       8.919       8.871       8.826    
        8.779       8.744       8.671       8.570       8.469       8.362       8.172       7.899       7.451       7.008    
        6.619       6.321       6.183       5.997       5.661       5.348       5.098       4.883       4.692       4.492    
        4.202       3.720       3.105       2.443       1.706       1.106      0.7612      0.4869      0.2243       0.000    
   9    10.00       9.922       9.858       9.803       9.763       9.725       9.679       9.635       9.591       9.549    
        9.477       9.388       9.312       9.245       9.168       9.072       8.970       8.892       8.843       8.796    
        8.753       8.696       8.594       8.501       8.397       8.246       7.970       7.560       7.118       6.800    
        6.495       6.279       6.125       5.877       5.568       5.327       5.150       4.987       4.824       4.607    
        4.248       3.746       3.091       2.352       1.674       1.145      0.7766      0.4830      0.2395       0.000    
  10    10.00       9.921       9.856       9.811       9.775       9.738       9.697       9.659       9.608       9.541    
        9.454       9.364       9.290       9.217       9.135       9.024       8.922       8.859       8.816       8.768    
        8.724       8.630       8.521       8.418       8.273       8.046       7.633       7.190       6.844       6.605    
        6.424       6.248       6.040       5.787       5.526       5.345       5.213       5.080       4.898       4.646    
        4.260       3.709       3.009       2.349       1.813       1.311      0.8317      0.5129      0.2703       0.000    
  11    10.00       9.911       9.860       9.822       9.787       9.754       9.718       9.667       9.595       9.519    
        9.433       9.344       9.273       9.176       9.063       8.966       8.893       8.834       8.791       8.738    
        8.659       8.537       8.380       8.227       7.974       7.637       7.271       6.978       6.700       6.529    
        6.377       6.146       5.912       5.725       5.553       5.420       5.289       5.118       4.903       4.607    
        4.246       3.759       3.050       2.448       1.972       1.491      0.9585      0.5083      0.2041       0.000    
  12    10.00       9.919       9.869       9.829       9.799       9.765       9.725       9.656       9.570       9.493    
        9.410       9.322       9.227       9.109       9.016       8.932       8.856       8.807       8.751       8.670    
        8.515       8.307       8.087       7.858       7.545       7.287       7.096       6.795       6.567       6.433    
        6.272       6.057       5.873       5.716       5.604       5.485       5.329       5.135       4.878       4.569    
        4.212       3.736       3.087       2.549       2.118       1.598       1.009      0.4809      0.1599       0.000    
  13    10.00       9.936       9.890       9.847       9.809       9.769       9.711       9.626       9.537       9.460    
        9.374       9.285       9.185       9.063       8.957       8.873       8.818       8.756       8.676       8.487    
        8.203       7.951       7.712       7.427       7.182       7.067       6.831       6.559       6.442       6.332    
        6.159       5.975       5.843       5.736       5.645       5.536       5.358       5.116       4.864       4.545    
        4.190       3.706       3.035       2.532       2.132       1.563      0.9395      0.4350      0.1257       0.000    
  14    10.00       9.953       9.912       9.866       9.820       9.760       9.675       9.585       9.506       9.419    
        9.332       9.250       9.131       8.995       8.898       8.831       8.742       8.646       8.458       8.125    
        7.822       7.597       7.283       7.049       6.939       6.809       6.567       6.410       6.294       6.187    
        6.042       5.929       5.851       5.765       5.670       5.558       5.359       5.094       4.824       4.498    
        4.118       3.532       2.901       2.494       2.004       1.458      0.9266      0.3974      0.1023       0.000    
  15    10.00       9.963       9.921       9.876       9.823       9.732       9.628       9.549       9.470       9.386    
        9.320       9.224       9.067       8.918       8.829       8.711       8.592       8.469       8.151       7.761    
        7.510       7.192       6.905       6.817       6.751       6.581       6.386       6.233       6.150       6.072    
        5.985       5.922       5.862       5.790       5.690       5.553       5.323       5.021       4.737       4.437    
        4.024       3.454       2.908       2.361       1.768       1.279      0.7968      0.3502      0.1051       0.000    
  16    10.00       9.973       9.932       9.878       9.795       9.684       9.594       9.530       9.459       9.372    
        9.284       9.147       8.965       8.822       8.693       8.554       8.471       8.224       7.762       7.402    
        7.149       6.836       6.729       6.676       6.551       6.337       6.181       6.110       6.084       6.032    
        5.969       5.918       5.870       5.794       5.674       5.503       5.227       4.953       4.729       4.406    
        3.936       3.321       2.693       2.085       1.581       1.097      0.6789      0.3324      0.1121       0.000    
  17    10.00       9.973       9.929       9.859       9.757       9.645       9.570       9.511       9.431       9.335    
        9.188       9.013       8.850       8.693       8.533       8.398       8.196       7.781       7.350       7.100    
        6.851       6.659       6.575       6.454       6.258       6.100       6.059       6.052       6.036       5.992    
        5.943       5.904       5.861       5.791       5.620       5.385       5.147       4.954       4.740       4.334    
        3.705       3.078       2.478       1.881       1.352      0.8879      0.5690      0.2973      0.1221       0.000    
  18    10.00       9.967       9.916       9.831       9.704       9.614       9.555       9.475       9.383       9.249    
        9.071       8.916       8.750       8.540       8.329       8.105       7.809       7.388       7.065       6.846    
        6.644       6.482       6.355       6.181       6.048       6.007       5.997       5.995       5.973       5.940    
        5.913       5.884       5.834       5.714       5.536       5.336       5.136       4.963       4.664       4.120    
        3.477       2.808       2.166       1.676       1.255      0.8324      0.4887      0.2459      0.1178       0.000    
  19    10.00       9.959       9.903       9.780       9.653       9.600       9.534       9.436       9.323       9.178    
        9.015       8.869       8.630       8.309       8.059       7.828       7.469       7.085       6.867       6.699    
        6.490       6.294       6.154       6.021       5.956       5.942       5.937       5.920       5.892       5.882    
        5.869       5.844       5.772       5.656       5.506       5.313       5.131       4.881       4.369       3.803    
        3.283       2.591       1.981       1.592       1.173      0.7510      0.4413      0.2504      0.1282       0.000    
  20    10.00       9.950       9.856       9.730       9.638       9.581       9.509       9.403       9.278       9.146    
        8.979       8.755       8.398       8.079       7.856       7.570       7.213       7.003       6.804       6.570    
        6.340       6.165       6.019       5.925       5.878       5.855       5.826       5.820       5.806       5.812    
        5.811       5.790       5.715       5.606       5.453       5.284       5.057       4.603       4.046       3.593    
        3.028       2.390       1.934       1.557       1.135      0.6665      0.3854      0.2606      0.1343       0.000    
  21    10.00       9.917       9.817       9.712       9.621       9.561       9.484       9.360       9.235       9.110    
        8.887       8.545       8.180       7.939       7.688       7.387       7.122       6.923       6.683       6.436    
        6.216       6.044       5.917       5.818       5.752       5.703       5.687       5.696       5.700       5.716    
        5.733       5.704       5.629       5.526       5.371       5.186       4.830       4.350       3.909       3.357    
        2.821       2.318       1.932       1.550      0.9556      0.5396      0.3901      0.2944      0.1411       0.000    
  22    10.00       9.895       9.776       9.681       9.609       9.537       9.428       9.313       9.203       9.030    
        8.744       8.356       8.065       7.848       7.567       7.258       7.004       6.792       6.573       6.339    
        6.120       5.939       5.768       5.616       5.530       5.511       5.528       5.544       5.582       5.607    
        5.628       5.596       5.533       5.426       5.270       5.085       4.720       4.256       3.678       3.144    
        2.755       2.353       1.889       1.250      0.7453      0.5379      0.4089      0.2722      0.1007       0.000    
  23    10.00       9.865       9.748       9.674       9.598       9.490       9.371       9.285       9.145       8.929    
        8.593       8.261       8.052       7.780       7.415       7.108       6.907       6.736       6.531       6.279    
        6.048       5.835       5.591       5.305       5.096       5.140       5.276       5.366       5.446       5.501    
        5.523       5.504       5.445       5.345       5.198       4.989       4.620       4.045       3.465       3.088    
        2.730       2.222       1.555       1.008      0.7334      0.5485      0.3923      0.2315      9.2111E-02   0.000    
  24    10.00       9.844       9.759       9.670       9.562       9.449       9.358       9.262       9.127       8.840    
        8.525       8.280       8.044       7.681       7.280       7.059       6.890       6.721       6.488       6.251    
        6.046       5.777       5.385       4.843       4.180       4.452       4.858       5.140       5.308       5.394    
        5.435       5.423       5.376       5.266       5.102       4.839       4.372       3.827       3.391       2.998    
        2.558       1.992       1.396      0.9770      0.7347      0.5343      0.3579      0.2508      0.1231       0.000    
  25    10.00       9.862       9.775       9.663       9.549       9.446       9.355       9.267       9.065       8.786    
        8.543       8.295       7.986       7.587       7.290       7.092       6.901       6.698       6.485       6.281    
        6.045       5.787       5.229       4.195       2.355       3.727       4.471       4.914       5.188       5.330    
        5.379       5.372       5.315       5.163       4.939       4.580       4.139       3.710       3.337       2.876    
        2.345       1.804       1.302      0.9683      0.7615      0.5552      0.3771      0.2626      0.1635       0.000    
  26    10.00       9.880       9.796       9.677       9.556       9.462       9.365       9.235       9.035       8.841    
        8.613       8.275       7.896       7.573       7.349       7.156       6.934       6.684       6.478       6.308    
        6.112       5.857       5.375       4.616       3.774       4.131       4.581       4.912       5.166       5.317    
        5.354       5.335       5.241       5.059       4.810       4.468       3.980       3.573       3.223       2.664    
        2.063       1.589       1.289       1.057      0.8212      0.5994      0.4111      0.2853      0.1667       0.000    
  27    10.00       9.904       9.800       9.694       9.589       9.477       9.369       9.237       9.073       8.895    
        8.608       8.227       7.895       7.628       7.440       7.218       6.930       6.669       6.509       6.369    
        6.215       5.981       5.616       5.168       4.716       4.688       4.861       5.074       5.260       5.345    
        5.349       5.313       5.203       5.003       4.711       4.247       3.787       3.451       2.919       2.331    
        1.864       1.560       1.334       1.131      0.8977      0.6542      0.4465      0.3140      0.1981       0.000    
  28    10.00       9.911       9.825       9.728       9.625       9.508       9.387       9.261       9.118       8.910    
        8.575       8.243       7.954       7.692       7.492       7.276       7.040       6.790       6.563       6.418    
        6.296       6.129       5.894       5.570       5.295       5.134       5.170       5.304       5.367       5.386    
        5.359       5.298       5.161       4.906       4.518       4.037       3.639       3.166       2.611       2.194    
        1.861       1.603       1.382       1.170      0.9432      0.7138      0.5066      0.3575      0.2043       0.000    
  29    10.00       9.917       9.833       9.757       9.656       9.550       9.433       9.303       9.146       8.869    
        8.556       8.275       8.001       7.780       7.553       7.323       7.110       6.909       6.692       6.502    
        6.371       6.243       6.087       5.895       5.634       5.506       5.491       5.497       5.497       5.450    
        5.376       5.257       5.090       4.760       4.285       3.858       3.456       2.962       2.518       2.211    
        1.941       1.658       1.408       1.205       1.000      0.7550      0.5353      0.3736      0.2072       0.000    
  30    10.00       9.928       9.858       9.792       9.701       9.597       9.491       9.344       9.133       8.881    
        8.565       8.261       8.036       7.816       7.601       7.394       7.222       7.036       6.825       6.624    
        6.463       6.354       6.223       6.093       5.952       5.834       5.791       5.699       5.632       5.523    
        5.373       5.167       4.930       4.580       4.206       3.806       3.375       2.911       2.575       2.297    
        1.976       1.692       1.473       1.242      0.9988      0.7813      0.5706      0.3968      0.2230       0.000    
  31    10.00       9.943       9.885       9.822       9.755       9.670       9.551       9.368       9.128       8.862    
        8.559       8.286       8.082       7.867       7.668       7.477       7.306       7.161       6.950       6.748    
        6.601       6.485       6.382       6.281       6.205       6.096       5.978       5.873       5.735       5.564    
        5.322       5.057       4.812       4.526       4.168       3.744       3.307       2.927       2.689       2.424    
        2.068       1.755       1.506       1.272       1.046      0.8220      0.6047      0.4176      0.2162       0.000    
  32    10.00       9.950       9.909       9.854       9.790       9.710       9.583       9.373       9.155       8.904    
        8.592       8.340       8.148       7.927       7.716       7.560       7.412       7.241       7.071       6.873    
        6.721       6.599       6.505       6.416       6.329       6.241       6.104       5.967       5.790       5.553    
        5.274       5.008       4.753       4.478       4.126       3.743       3.401       3.077       2.804       2.500    
        2.171       1.862       1.599       1.330       1.083      0.8940      0.6669      0.4098      0.1830       0.000    
  33    10.00       9.958       9.926       9.879       9.814       9.729       9.564       9.357       9.181       8.957    
        8.672       8.433       8.207       7.960       7.774       7.643       7.515       7.340       7.154       6.984    
        6.815       6.691       6.575       6.477       6.400       6.313       6.167       5.977       5.788       5.561    
        5.280       5.039       4.771       4.432       4.102       3.762       3.484       3.228       2.918       2.583    
        2.298       2.006       1.718       1.439       1.179      0.9681      0.7136      0.4119      0.1790       0.000    
  34    10.00       9.965       9.941       9.901       9.817       9.692       9.540       9.396       9.215       8.993    
        8.751       8.492       8.239       7.999       7.846       7.739       7.601       7.434       7.225       7.060    
        6.909       6.753       6.629       6.532       6.454       6.343       6.172       5.990       5.788       5.523    
        5.275       5.077       4.815       4.485       4.157       3.843       3.579       3.325       3.005       2.702    
        2.447       2.166       1.851       1.573       1.310       1.067      0.7633      0.4634      0.2430       0.000    
  35    10.00       9.971       9.941       9.885       9.781       9.659       9.550       9.427       9.281       9.042    
        8.777       8.520       8.265       8.066       7.931       7.818       7.671       7.495       7.292       7.098    
        6.944       6.798       6.672       6.579       6.493       6.379       6.192       5.975       5.737       5.461    
        5.272       5.067       4.800       4.558       4.282       3.952       3.660       3.446       3.144       2.820    
        2.574       2.286       1.970       1.697       1.423       1.157      0.8750      0.5799      0.2869       0.000    
  36    10.00       9.965       9.917       9.855       9.759       9.646       9.555       9.450       9.292       9.063    
        8.776       8.503       8.322       8.171       8.038       7.894       7.721       7.543       7.329       7.077    
        6.909       6.798       6.687       6.609       6.522       6.379       6.169       5.930       5.639       5.387    
        5.225       5.057       4.826       4.592       4.362       4.066       3.776       3.548       3.278       2.924    
        2.655       2.333       2.018       1.810       1.544       1.248      0.9651      0.6568      0.3213       0.000    
  37    10.00       9.946       9.895       9.834       9.740       9.641       9.539       9.438       9.294       9.028    
        8.730       8.522       8.415       8.270       8.104       7.962       7.751       7.531       7.262       7.006    
        6.892       6.799       6.692       6.607       6.506       6.331       6.117       5.806       5.538       5.372    
        5.229       5.049       4.821       4.637       4.402       4.122       3.895       3.676       3.373       2.984    
        2.630       2.329       2.110       1.893       1.627       1.346       1.063      0.7243      0.3977       0.000    
  38    10.00       9.939       9.873       9.809       9.727       9.633       9.525       9.416       9.251       9.002    
        8.780       8.615       8.478       8.347       8.170       7.940       7.704       7.450       7.151       6.978    
        6.886       6.765       6.657       6.585       6.470       6.272       5.958       5.665       5.523       5.395    
        5.245       5.054       4.847       4.665       4.435       4.180       3.994       3.771       3.384       2.957    
        2.650       2.398       2.181       1.957       1.721       1.436       1.154      0.8377      0.4140       0.000    
  39    10.00       9.922       9.858       9.800       9.721       9.615       9.501       9.389       9.234       9.031    
        8.856       8.730       8.577       8.399       8.145       7.859       7.593       7.298       7.085       6.972    
        6.835       6.695       6.612       6.543       6.432       6.169       5.852       5.673       5.543       5.411    
        5.242       5.061       4.862       4.679       4.504       4.296       4.051       3.781       3.400       3.002    
        2.677       2.417       2.246       2.059       1.793       1.511       1.225      0.8719      0.4085       0.000    
  40    10.00       9.913       9.852       9.794       9.713       9.604       9.492       9.381       9.244       9.075    
        8.931       8.821       8.635       8.358       8.042       7.755       7.474       7.220       7.064       6.925    
        6.767       6.645       6.574       6.489       6.339       6.105       5.890       5.711       5.564       5.427    
        5.261       5.067       4.879       4.726       4.573       4.362       4.079       3.797       3.409       2.982    
        2.679       2.473       2.285       2.124       1.845       1.536       1.275      0.8743      0.4070       0.000    
  41    10.00       9.921       9.850       9.780       9.693       9.607       9.514       9.411       9.275       9.122    
        8.985       8.851       8.613       8.286       7.960       7.691       7.415       7.173       7.020       6.869    
        6.711       6.604       6.526       6.425       6.270       6.093       5.948       5.774       5.591       5.430    
        5.271       5.095       4.915       4.782       4.620       4.409       4.126       3.737       3.292       2.963    
        2.743       2.544       2.349       2.126       1.835       1.539       1.315      0.9314      0.4223       0.000    
  42    10.00       9.921       9.841       9.779       9.715       9.636       9.537       9.420       9.304       9.186    
        9.012       8.785       8.508       8.197       7.893       7.648       7.379       7.143       6.978       6.809    
        6.661       6.566       6.480       6.387       6.247       6.124       6.000       5.804       5.599       5.454    
        5.323       5.131       4.939       4.809       4.659       4.434       4.086       3.627       3.220       2.975    
        2.809       2.631       2.383       2.086       1.807       1.576       1.344      0.9824      0.4847       0.000    
  43    10.00       9.914       9.847       9.794       9.743       9.667       9.569       9.458       9.330       9.148    
        8.925       8.691       8.432       8.108       7.835       7.609       7.367       7.129       6.921       6.763    
        6.630       6.534       6.461       6.385       6.265       6.138       6.012       5.809       5.630       5.523    
        5.365       5.157       4.972       4.838       4.662       4.372       3.970       3.534       3.238       3.050    
        2.873       2.669       2.364       2.059       1.813       1.590       1.390      0.9962      0.4553       0.000    
  44    10.00       9.914       9.855       9.807       9.746       9.689       9.609       9.461       9.272       9.062    
        8.875       8.638       8.326       8.054       7.836       7.577       7.312       7.061       6.855       6.716    
        6.619       6.537       6.462       6.383       6.280       6.150       5.981       5.812       5.691       5.564    
        5.422       5.241       5.028       4.825       4.611       4.285       3.863       3.505       3.276       3.094    
        2.916       2.673       2.379       2.115       1.852       1.612       1.367      0.8994      0.4136       0.000    
  45    10.00       9.923       9.869       9.806       9.747       9.698       9.567       9.391       9.200       9.020    
        8.866       8.549       8.225       8.027       7.793       7.506       7.218       6.986       6.819       6.709    
        6.634       6.557       6.475       6.382       6.267       6.139       5.997       5.867       5.761       5.628    
        5.464       5.277       5.057       4.801       4.544       4.194       3.798       3.516       3.342       3.155    
        2.917       2.639       2.387       2.146       1.913       1.675       1.277      0.7993      0.4022       0.000    
  46    10.00       9.938       9.880       9.807       9.739       9.641       9.499       9.366       9.206       9.013    
        8.758       8.457       8.197       7.946       7.697       7.418       7.151       6.980       6.843       6.737    
        6.661       6.586       6.483       6.366       6.256       6.147       6.035       5.916       5.809       5.692    
        5.543       5.346       5.097       4.793       4.427       4.063       3.770       3.571       3.388       3.194    
        2.913       2.617       2.365       2.175       1.952       1.641       1.189      0.7635      0.3764       0.000    
  47    10.00       9.950       9.894       9.822       9.706       9.577       9.455       9.351       9.204       8.950    
        8.644       8.368       8.142       7.933       7.668       7.365       7.129       6.967       6.857       6.768    
        6.687       6.598       6.490       6.368       6.260       6.175       6.081       5.964       5.840       5.726    
        5.596       5.431       5.100       4.675       4.317       4.055       3.810       3.638       3.477       3.208    
        2.865       2.552       2.324       2.193       1.946       1.566       1.124      0.7365      0.3721       0.000    
  48    10.00       9.955       9.898       9.791       9.671       9.560       9.438       9.332       9.183       8.897    
        8.563       8.332       8.146       7.890       7.582       7.308       7.131       6.968       6.858       6.789    
        6.707       6.601       6.484       6.372       6.283       6.215       6.132       6.001       5.859       5.735    
        5.600       5.400       5.056       4.703       4.384       4.095       3.876       3.700       3.494       3.152    
        2.783       2.542       2.361       2.128       1.804       1.467       1.089      0.7418      0.3927       0.000    
  49    10.00       9.952       9.866       9.763       9.673       9.553       9.434       9.323       9.135       8.832    
        8.533       8.312       8.081       7.821       7.589       7.334       7.087       6.936       6.869       6.804    
        6.726       6.604       6.469       6.371       6.303       6.253       6.157       6.007       5.857       5.745    
        5.598       5.336       5.032       4.782       4.515       4.197       3.913       3.696       3.453       3.086    
        2.790       2.578       2.328       1.992       1.705       1.401       1.071      0.7540      0.3840       0.000    
  50    10.00       9.940       9.845       9.751       9.678       9.567       9.435       9.293       9.090       8.850    
        8.548       8.252       8.011       7.804       7.617       7.332       7.051       6.936       6.877       6.814    
        6.739       6.602       6.457       6.369       6.315       6.269       6.162       6.000       5.857       5.743    
        5.582       5.307       5.073       4.859       4.570       4.253       3.966       3.678       3.328       3.003    
        2.846       2.623       2.258       1.921       1.680       1.391       1.103      0.7364      0.3025       0.000    

 HEAD WILL BE SAVED ON UNIT   51 AT END OF TIME STEP  54, STRESS PERIOD    2

 DRAWDOWN WILL BE SAVED ON UNIT   52 AT END OF TIME STEP  54, STRESS PERIOD    2
1
  VOLUMETRIC BUDGET FOR ENTIRE MODEL AT END OF TIME STEP 54 IN STRESS PERIOD   2
  ------------------------------------------------------------------------------

     CUMULATIVE VOLUMES      L**3       RATES FOR THIS TIME STEP      L**3/T
     ------------------                 ------------------------

           IN:                                      IN:
           ---                                      ---
             STORAGE =       26263.3281               STORAGE =         452.5119
       CONSTANT HEAD =       30411.1387         CONSTANT HEAD =         585.5126
               WELLS =           0.0000                 WELLS =           0.0000

            TOTAL IN =       56674.4688              TOTAL IN =        1038.0245

          OUT:                                     OUT:
          ----                                     ----
             STORAGE =       9.3745E-03               STORAGE =           0.0000
       CONSTANT HEAD =       29674.4473         CONSTANT HEAD =         538.0247
               WELLS =       27000.0000                 WELLS =         500.0000

           TOTAL OUT =       56674.4570             TOTAL OUT =        1038.0247

            IN - OUT =       1.1719E-02              IN - OUT =      -1.2207E-04

 PERCENT DISCREPANCY =           0.00     PERCENT DISCREPANCY =           0.00






          TIME SUMMARY AT END OF TIME STEP  54 IN STRESS PERIOD    2
                    SECONDS     MINUTES      HOURS       DAYS        YEARS
                    -----------------------------------------------------------
   TIME STEP LENGTH  86400.      1440.0      24.000      1.0000     2.73785E-03
 STRESS PERIOD TIME 4.66560E+06  77760.      1296.0      54.000     0.14784    
         TOTAL TIME 4.75200E+06  79200.      1320.0      55.000     0.15058    
1
 
 SOLVING FOR HEAD 

 OUTPUT CONTROL FOR STRESS PERIOD    2   TIME STEP  55
    SAVE HEAD FOR ALL LAYERS
    SAVE DRAWDOWN FOR ALL LAYERS
    SAVE BUDGET
    PRINT HEAD FOR ALL LAYERS
    PRINT BUDGET
 UBDSV1 SAVING "         STORAGE" ON UNIT  53 AT TIME STEP 55, STRESS PERIOD   2
 UBDSV2 SAVING "   CONSTANT HEAD" ON UNIT  53 AT TIME STEP 55, STRESS PERIOD   2
 UBDSV1 SAVING "FLOW RIGHT FACE " ON UNIT  53 AT TIME STEP 55, STRESS PERIOD   2
 UBDSV1 SAVING "FLOW FRONT FACE " ON UNIT  53 AT TIME STEP 55, STRESS PERIOD   2
1
              HEAD IN LAYER   1 AT END OF TIME STEP  55 IN STRESS PERIOD    2
  ---------------------------------------------------------------------------

            1           2           3           4           5           6           7           8           9          10
           11          12          13          14          15          16          17          18          19          20
           21          22          23          24          25          26          27          28          29          30
           31          32          33          34          35          36          37          38          39          40
           41          42          43          44          45          46          47          48          49          50
 ........................................................................................................................
   1    10.00       9.956       9.896       9.836       9.786       9.725       9.665       9.603       9.519       9.450    
        9.409       9.368       9.323       9.278       9.206       9.127       9.041       8.974       8.943       8.910    
        8.868       8.833       8.797       8.751       8.688       8.578       8.445       8.316       8.167       8.020    
        7.810       7.477       7.084       6.671       6.207       5.778       5.415       5.078       4.617       4.116    
        3.690       3.269       2.689       2.138       1.752       1.366       1.041      0.8320      0.5518       0.000    
   2    10.00       9.956       9.902       9.842       9.789       9.732       9.666       9.583       9.503       9.450    
        9.413       9.376       9.342       9.286       9.203       9.121       9.042       8.976       8.944       8.906    
        8.864       8.837       8.808       8.759       8.686       8.581       8.447       8.313       8.174       8.027    
        7.800       7.456       7.043       6.575       6.107       5.694       5.369       5.038       4.571       4.101    
        3.671       3.165       2.641       2.205       1.822       1.462       1.092      0.7901      0.4219       0.000    
   3    10.00       9.951       9.900       9.845       9.791       9.726       9.643       9.565       9.514       9.465    
        9.423       9.391       9.357       9.304       9.221       9.120       9.036       8.982       8.941       8.903    
        8.868       8.839       8.809       8.749       8.671       8.564       8.437       8.335       8.188       8.014    
        7.722       7.322       6.882       6.428       5.997       5.613       5.323       4.982       4.476       4.019    
        3.661       3.201       2.719       2.300       1.903       1.539       1.102      0.6779      0.2982       0.000    
   4    10.00       9.955       9.903       9.843       9.776       9.701       9.622       9.564       9.520       9.475    
        9.438       9.411       9.373       9.316       9.240       9.129       9.036       8.985       8.941       8.905    
        8.865       8.831       8.794       8.729       8.650       8.546       8.422       8.308       8.194       7.975    
        7.597       7.108       6.636       6.289       5.968       5.597       5.225       4.792       4.364       4.032    
        3.714       3.307       2.825       2.412       1.995       1.555       1.051      0.6020      0.2804       0.000    
   5    10.00       9.952       9.896       9.828       9.759       9.689       9.620       9.571       9.526       9.486    
        9.454       9.426       9.381       9.315       9.226       9.124       9.045       8.990       8.944       8.894    
        8.848       8.812       8.766       8.700       8.625       8.506       8.383       8.285       8.170       7.890    
        7.393       6.854       6.465       6.202       5.912       5.537       5.113       4.686       4.384       4.103    
        3.816       3.397       2.895       2.535       2.111       1.535      0.9565      0.5556      0.2795       0.000    
   6    10.00       9.940       9.874       9.821       9.756       9.684       9.625       9.581       9.534       9.498    
        9.468       9.433       9.376       9.298       9.222       9.138       9.052       8.984       8.925       8.868    
        8.827       8.788       8.746       8.676       8.565       8.451       8.360       8.253       8.060       7.657    
        7.102       6.614       6.317       6.120       5.887       5.475       5.015       4.678       4.456       4.211    
        3.933       3.555       3.057       2.609       2.085       1.469      0.8577      0.4886      0.2730       0.000    
   7    10.00       9.923       9.861       9.809       9.747       9.695       9.639       9.593       9.553       9.515    
        9.476       9.426       9.356       9.281       9.212       9.143       9.047       8.954       8.892       8.845    
        8.804       8.763       8.719       8.625       8.511       8.420       8.320       8.147       7.821       7.307    
        6.783       6.403       6.220       6.068       5.770       5.363       5.061       4.769       4.529       4.360    
        4.080       3.689       3.157       2.578       1.932       1.224      0.7189      0.4961      0.2512       0.000    
   8    10.00       9.918       9.861       9.805       9.749       9.703       9.656       9.611       9.573       9.536    
        9.479       9.406       9.333       9.267       9.202       9.116       9.003       8.915       8.868       8.823    
        8.775       8.740       8.667       8.566       8.465       8.357       8.167       7.894       7.445       7.001    
        6.612       6.314       6.176       5.990       5.654       5.342       5.092       4.878       4.687       4.488    
        4.199       3.717       3.102       2.441       1.705       1.105      0.7608      0.4867      0.2242       0.000    
   9    10.00       9.922       9.858       9.802       9.763       9.724       9.678       9.633       9.590       9.547    
        9.476       9.385       9.310       9.243       9.165       9.068       8.966       8.889       8.839       8.792    
        8.749       8.692       8.590       8.496       8.392       8.241       7.964       7.553       7.111       6.793    
        6.487       6.271       6.117       5.870       5.561       5.321       5.143       4.982       4.819       4.602    
        4.244       3.742       3.089       2.351       1.673       1.144      0.7762      0.4828      0.2394       0.000    
  10    10.00       9.921       9.855       9.810       9.774       9.737       9.696       9.658       9.607       9.539    
        9.452       9.361       9.288       9.214       9.132       9.020       8.918       8.855       8.812       8.764    
        8.720       8.626       8.516       8.412       8.268       8.040       7.626       7.182       6.836       6.597    
        6.415       6.240       6.032       5.779       5.519       5.338       5.207       5.073       4.892       4.641    
        4.256       3.706       3.007       2.348       1.812       1.310      0.8313      0.5127      0.2702       0.000    
  11    10.00       9.910       9.860       9.822       9.786       9.753       9.717       9.666       9.593       9.517    
        9.431       9.341       9.270       9.172       9.059       8.962       8.888       8.830       8.787       8.734    
        8.654       8.532       8.374       8.221       7.967       7.629       7.262       6.969       6.691       6.520    
        6.368       6.137       5.904       5.717       5.545       5.413       5.283       5.111       4.897       4.602    
        4.241       3.755       3.048       2.446       1.971       1.490      0.9581      0.5080      0.2040       0.000    
  12    10.00       9.918       9.868       9.828       9.798       9.764       9.724       9.654       9.568       9.491    
        9.408       9.319       9.224       9.105       9.012       8.928       8.851       8.802       8.746       8.665    
        8.509       8.301       8.080       7.850       7.536       7.277       7.086       6.785       6.557       6.423    
        6.262       6.048       5.864       5.707       5.596       5.477       5.322       5.129       4.872       4.564    
        4.208       3.733       3.084       2.547       2.116       1.597       1.008      0.4808      0.1599       0.000    
  13    10.00       9.936       9.890       9.847       9.808       9.769       9.710       9.624       9.535       9.458    
        9.371       9.282       9.181       9.059       8.952       8.868       8.814       8.751       8.671       8.481    
        8.196       7.943       7.703       7.417       7.172       7.056       6.820       6.547       6.431       6.321    
        6.149       5.965       5.833       5.727       5.636       5.527       5.350       5.109       4.858       4.539    
        4.185       3.702       3.033       2.530       2.131       1.562      0.9391      0.4349      0.1257       0.000    
  14    10.00       9.953       9.911       9.866       9.820       9.759       9.674       9.584       9.504       9.416    
        9.329       9.247       9.127       8.990       8.893       8.826       8.736       8.640       8.451       8.117    
        7.812       7.587       7.272       7.037       6.927       6.797       6.554       6.397       6.281       6.175    
        6.030       5.918       5.840       5.755       5.661       5.549       5.350       5.086       4.817       4.493    
        4.113       3.529       2.898       2.493       2.003       1.457      0.9262      0.3972      0.1023       0.000    
  15    10.00       9.963       9.921       9.875       9.822       9.731       9.626       9.547       9.467       9.383    
        9.317       9.221       9.063       8.913       8.824       8.705       8.585       8.462       8.143       7.751    
        7.500       7.180       6.892       6.805       6.738       6.568       6.373       6.219       6.137       6.060    
        5.973       5.910       5.851       5.779       5.680       5.543       5.314       5.014       4.731       4.431    
        4.020       3.451       2.905       2.359       1.767       1.279      0.7964      0.3501      0.1051       0.000    
  16    10.00       9.973       9.931       9.877       9.794       9.682       9.592       9.528       9.456       9.369    
        9.280       9.143       8.960       8.817       8.687       8.547       8.464       8.216       7.752       7.391    
        7.137       6.822       6.716       6.663       6.538       6.324       6.167       6.096       6.071       6.019    
        5.956       5.906       5.858       5.783       5.664       5.493       5.218       4.945       4.722       4.400    
        3.931       3.318       2.691       2.084       1.580       1.097      0.6786      0.3323      0.1121       0.000    
  17    10.00       9.973       9.929       9.858       9.755       9.643       9.568       9.508       9.428       9.331    
        9.184       9.008       8.844       8.686       8.526       8.390       8.187       7.771       7.337       7.087    
        6.838       6.645       6.562       6.440       6.244       6.085       6.044       6.037       6.022       5.978    
        5.930       5.892       5.849       5.779       5.609       5.375       5.138       4.946       4.733       4.328    
        3.701       3.075       2.476       1.880       1.352      0.8874      0.5687      0.2971      0.1221       0.000    
  18    10.00       9.966       9.916       9.830       9.702       9.612       9.552       9.472       9.380       9.245    
        9.066       8.910       8.744       8.532       8.320       8.096       7.798       7.375       7.051       6.832    
        6.629       6.468       6.340       6.166       6.033       5.992       5.982       5.980       5.959       5.927    
        5.900       5.870       5.821       5.702       5.525       5.326       5.127       4.955       4.657       4.114    
        3.473       2.806       2.165       1.675       1.254      0.8319      0.4885      0.2458      0.1178       0.000    
  19    10.00       9.959       9.903       9.779       9.651       9.598       9.532       9.432       9.319       9.173    
        9.010       8.863       8.622       8.300       8.048       7.817       7.457       7.071       6.853       6.685    
        6.475       6.279       6.139       6.005       5.941       5.927       5.922       5.905       5.877       5.867    
        5.855       5.831       5.759       5.644       5.495       5.302       5.121       4.873       4.363       3.798    
        3.279       2.589       1.980       1.591       1.173      0.7506      0.4411      0.2502      0.1282       0.000    
  20    10.00       9.950       9.856       9.729       9.636       9.578       9.506       9.400       9.274       9.141    
        8.973       8.748       8.389       8.069       7.844       7.558       7.200       6.989       6.790       6.555    
        6.325       6.150       6.004       5.910       5.863       5.839       5.811       5.804       5.791       5.797    
        5.796       5.775       5.701       5.594       5.441       5.274       5.048       4.595       4.041       3.589    
        3.025       2.389       1.932       1.556       1.134      0.6661      0.3853      0.2605      0.1342       0.000    
  21    10.00       9.917       9.816       9.710       9.619       9.558       9.481       9.356       9.231       9.105    
        8.880       8.537       8.170       7.928       7.676       7.374       7.109       6.909       6.669       6.421    
        6.200       6.029       5.901       5.802       5.736       5.687       5.671       5.680       5.684       5.700    
        5.718       5.690       5.614       5.513       5.359       5.175       4.821       4.343       3.903       3.353    
        2.818       2.316       1.930       1.549      0.9551      0.5393      0.3900      0.2942      0.1411       0.000    
  22    10.00       9.895       9.774       9.680       9.607       9.534       9.425       9.309       9.198       9.025    
        8.736       8.347       8.055       7.836       7.554       7.244       6.989       6.778       6.558       6.324    
        6.104       5.923       5.752       5.600       5.514       5.495       5.512       5.528       5.566       5.591    
        5.612       5.581       5.519       5.412       5.258       5.074       4.711       4.249       3.674       3.141    
        2.753       2.351       1.887       1.249      0.7450      0.5376      0.4087      0.2721      0.1007       0.000    
  23    10.00       9.864       9.747       9.672       9.596       9.487       9.367       9.281       9.140       8.922    
        8.584       8.251       8.041       7.768       7.402       7.094       6.893       6.721       6.515       6.263    
        6.032       5.819       5.575       5.288       5.079       5.123       5.260       5.349       5.430       5.485    
        5.506       5.488       5.430       5.331       5.186       4.978       4.611       4.039       3.461       3.085    
        2.727       2.221       1.554       1.007      0.7331      0.5482      0.3922      0.2314      9.2081E-02   0.000    
  24    10.00       9.843       9.758       9.668       9.559       9.446       9.354       9.258       9.122       8.834    
        8.516       8.270       8.033       7.669       7.267       7.045       6.876       6.706       6.473       6.236    
        6.030       5.761       5.369       4.826       4.163       4.435       4.841       5.124       5.291       5.377    
        5.419       5.407       5.361       5.252       5.089       4.828       4.364       3.821       3.387       2.995    
        2.556       1.991       1.395      0.9766      0.7344      0.5341      0.3578      0.2507      0.1231       0.000    
  25    10.00       9.861       9.774       9.661       9.547       9.443       9.351       9.263       9.059       8.779    
        8.534       8.286       7.975       7.575       7.277       7.078       6.887       6.683       6.470       6.266    
        6.029       5.771       5.212       4.178       2.338       3.710       4.454       4.897       5.171       5.313    
        5.362       5.356       5.300       5.150       4.927       4.570       4.131       3.705       3.333       2.874    
        2.343       1.803       1.301      0.9679      0.7613      0.5551      0.3770      0.2626      0.1634       0.000    
  26    10.00       9.879       9.795       9.675       9.553       9.459       9.361       9.230       9.029       8.834    
        8.605       8.265       7.885       7.561       7.336       7.142       6.920       6.670       6.463       6.292    
        6.096       5.841       5.359       4.599       3.757       4.113       4.564       4.895       5.149       5.300    
        5.338       5.319       5.227       5.046       4.798       4.458       3.973       3.568       3.219       2.661    
        2.062       1.588       1.288       1.057      0.8209      0.5992      0.4110      0.2852      0.1666       0.000    
  27    10.00       9.904       9.799       9.692       9.587       9.474       9.365       9.233       9.067       8.889    
        8.601       8.218       7.884       7.616       7.427       7.205       6.916       6.655       6.494       6.353    
        6.200       5.965       5.600       5.152       4.699       4.671       4.843       5.056       5.242       5.328    
        5.332       5.297       5.188       4.990       4.700       4.239       3.781       3.446       2.916       2.329    
        1.863       1.559       1.333       1.130      0.8974      0.6540      0.4464      0.3139      0.1980       0.000    
  28    10.00       9.910       9.824       9.727       9.623       9.505       9.384       9.256       9.113       8.904    
        8.567       8.234       7.943       7.681       7.480       7.263       7.027       6.775       6.548       6.403    
        6.281       6.114       5.878       5.554       5.278       5.117       5.153       5.287       5.350       5.369    
        5.343       5.283       5.147       4.894       4.509       4.030       3.634       3.162       2.609       2.192    
        1.860       1.602       1.381       1.170      0.9429      0.7136      0.5065      0.3574      0.2043       0.000    
  29    10.00       9.916       9.832       9.756       9.654       9.547       9.430       9.299       9.141       8.862    
        8.548       8.266       7.990       7.769       7.541       7.311       7.097       6.895       6.678       6.487    
        6.356       6.227       6.072       5.879       5.618       5.489       5.475       5.480       5.480       5.434    
        5.361       5.243       5.078       4.750       4.277       3.853       3.452       2.959       2.516       2.210    
        1.940       1.658       1.407       1.204       1.000      0.7548      0.5352      0.3735      0.2071       0.000    
  30    10.00       9.927       9.857       9.791       9.700       9.594       9.488       9.340       9.128       8.875    
        8.557       8.252       8.026       7.806       7.590       7.381       7.209       7.023       6.811       6.609    
        6.448       6.339       6.208       6.078       5.936       5.818       5.775       5.683       5.616       5.508    
        5.359       5.155       4.920       4.572       4.200       3.801       3.372       2.909       2.573       2.295    
        1.975       1.691       1.473       1.242      0.9985      0.7811      0.5705      0.3967      0.2229       0.000    
  31    10.00       9.942       9.885       9.821       9.754       9.668       9.549       9.364       9.123       8.856    
        8.551       8.278       8.073       7.857       7.657       7.465       7.294       7.149       6.937       6.734    
        6.587       6.471       6.368       6.266       6.190       6.081       5.963       5.858       5.721       5.551    
        5.311       5.047       4.804       4.520       4.163       3.740       3.305       2.925       2.687       2.423    
        2.067       1.755       1.506       1.272       1.045      0.8219      0.6046      0.4175      0.2162       0.000    
  32    10.00       9.950       9.909       9.854       9.789       9.709       9.581       9.370       9.151       8.899    
        8.585       8.332       8.139       7.917       7.705       7.549       7.400       7.228       7.059       6.860    
        6.708       6.585       6.491       6.403       6.315       6.227       6.090       5.953       5.777       5.542    
        5.265       5.000       4.746       4.473       4.121       3.740       3.398       3.075       2.802       2.499    
        2.170       1.861       1.599       1.330       1.083      0.8938      0.6668      0.4097      0.1830       0.000    
  33    10.00       9.958       9.926       9.878       9.813       9.727       9.562       9.354       9.177       8.952    
        8.665       8.426       8.198       7.951       7.764       7.633       7.504       7.328       7.142       6.971    
        6.803       6.678       6.562       6.465       6.387       6.300       6.154       5.965       5.778       5.551    
        5.272       5.032       4.765       4.427       4.098       3.759       3.481       3.226       2.917       2.582    
        2.298       2.005       1.717       1.439       1.179      0.9680      0.7135      0.4118      0.1790       0.000    
  34    10.00       9.965       9.941       9.901       9.816       9.690       9.538       9.394       9.211       8.988    
        8.745       8.485       8.231       7.990       7.837       7.729       7.591       7.423       7.214       7.049    
        6.898       6.741       6.617       6.520       6.442       6.331       6.161       5.980       5.778       5.515    
        5.269       5.072       4.810       4.481       4.153       3.840       3.577       3.324       3.004       2.701    
        2.447       2.165       1.851       1.572       1.310       1.067      0.7632      0.4634      0.2430       0.000    
  35    10.00       9.971       9.941       9.884       9.780       9.658       9.548       9.424       9.277       9.038    
        8.772       8.513       8.257       8.058       7.922       7.809       7.662       7.485       7.282       7.087    
        6.934       6.788       6.661       6.569       6.482       6.369       6.182       5.966       5.729       5.454    
        5.267       5.063       4.796       4.555       4.280       3.950       3.659       3.445       3.143       2.819    
        2.574       2.285       1.970       1.696       1.423       1.157      0.8749      0.5798      0.2868       0.000    
  36    10.00       9.965       9.916       9.855       9.758       9.645       9.554       9.447       9.289       9.059    
        8.771       8.498       8.316       8.164       8.030       7.885       7.712       7.534       7.320       7.068    
        6.900       6.789       6.678       6.600       6.513       6.370       6.161       5.923       5.633       5.382    
        5.221       5.054       4.823       4.590       4.360       4.065       3.775       3.547       3.277       2.924    
        2.654       2.333       2.018       1.809       1.543       1.248      0.9651      0.6567      0.3213       0.000    
  37    10.00       9.946       9.895       9.833       9.739       9.640       9.537       9.436       9.291       9.024    
        8.725       8.516       8.409       8.263       8.097       7.954       7.743       7.522       7.254       6.999    
        6.884       6.791       6.684       6.599       6.498       6.323       6.111       5.801       5.534       5.368    
        5.226       5.046       4.819       4.635       4.400       4.121       3.894       3.675       3.372       2.984    
        2.630       2.329       2.110       1.893       1.627       1.346       1.063      0.7243      0.3977       0.000    
  38    10.00       9.939       9.873       9.809       9.726       9.632       9.524       9.414       9.249       8.999    
        8.776       8.610       8.473       8.341       8.163       7.933       7.697       7.444       7.145       6.972    
        6.879       6.758       6.650       6.578       6.463       6.266       5.953       5.662       5.520       5.392    
        5.243       5.052       4.846       4.663       4.433       4.179       3.993       3.771       3.384       2.956    
        2.650       2.398       2.180       1.957       1.721       1.436       1.154      0.8376      0.4139       0.000    
  39    10.00       9.921       9.857       9.799       9.721       9.614       9.499       9.387       9.232       9.028    
        8.853       8.726       8.573       8.394       8.139       7.853       7.588       7.293       7.079       6.966    
        6.829       6.690       6.607       6.538       6.427       6.165       5.849       5.670       5.540       5.409    
        5.240       5.059       4.860       4.677       4.503       4.295       4.050       3.780       3.399       3.001    
        2.677       2.417       2.246       2.059       1.793       1.511       1.225      0.8718      0.4085       0.000    
  40    10.00       9.913       9.852       9.793       9.712       9.603       9.491       9.380       9.242       9.072    
        8.928       8.817       8.631       8.354       8.037       7.750       7.469       7.216       7.059       6.920    
        6.763       6.640       6.570       6.485       6.336       6.102       5.887       5.708       5.562       5.425    
        5.260       5.065       4.877       4.725       4.572       4.361       4.078       3.796       3.409       2.982    
        2.678       2.473       2.284       2.124       1.845       1.536       1.275      0.8742      0.4070       0.000    
  41    10.00       9.921       9.850       9.780       9.692       9.606       9.513       9.410       9.274       9.120    
        8.982       8.849       8.610       8.283       7.956       7.687       7.412       7.169       7.016       6.866    
        6.708       6.600       6.523       6.421       6.267       6.091       5.946       5.772       5.589       5.428    
        5.270       5.094       4.914       4.781       4.618       4.408       4.125       3.736       3.291       2.963    
        2.742       2.543       2.348       2.125       1.835       1.539       1.315      0.9313      0.4223       0.000    
  42    10.00       9.921       9.840       9.779       9.715       9.635       9.536       9.419       9.303       9.184    
        9.010       8.782       8.506       8.194       7.891       7.646       7.376       7.139       6.975       6.805    
        6.658       6.563       6.477       6.385       6.245       6.122       5.998       5.802       5.597       5.452    
        5.322       5.130       4.937       4.808       4.658       4.433       4.086       3.626       3.219       2.975    
        2.809       2.631       2.382       2.086       1.807       1.576       1.343      0.9823      0.4847       0.000    
  43    10.00       9.914       9.847       9.793       9.742       9.666       9.568       9.457       9.329       9.147    
        8.923       8.689       8.430       8.105       7.833       7.606       7.364       7.126       6.918       6.760    
        6.627       6.532       6.459       6.383       6.263       6.136       6.010       5.807       5.628       5.522    
        5.363       5.156       4.970       4.837       4.661       4.371       3.969       3.534       3.237       3.050    
        2.873       2.668       2.363       2.059       1.813       1.590       1.390      0.9961      0.4552       0.000    
  44    10.00       9.914       9.855       9.807       9.746       9.689       9.608       9.460       9.271       9.061    
        8.874       8.636       8.324       8.053       7.834       7.575       7.310       7.059       6.853       6.714    
        6.617       6.534       6.460       6.381       6.278       6.148       5.979       5.810       5.690       5.562    
        5.420       5.240       5.027       4.824       4.610       4.284       3.863       3.505       3.275       3.094    
        2.916       2.673       2.378       2.115       1.851       1.612       1.367      0.8993      0.4136       0.000    
  45    10.00       9.923       9.869       9.806       9.747       9.697       9.566       9.391       9.199       9.019    
        8.865       8.548       8.223       8.026       7.792       7.504       7.216       6.984       6.817       6.707    
        6.632       6.555       6.473       6.380       6.265       6.138       5.995       5.865       5.759       5.627    
        5.462       5.275       5.056       4.800       4.543       4.193       3.797       3.515       3.341       3.154    
        2.917       2.639       2.386       2.146       1.913       1.674       1.277      0.7992      0.4022       0.000    
  46    10.00       9.938       9.880       9.807       9.739       9.641       9.498       9.366       9.205       9.012    
        8.756       8.455       8.195       7.945       7.695       7.417       7.149       6.978       6.841       6.735    
        6.659       6.584       6.481       6.364       6.254       6.146       6.033       5.914       5.807       5.690    
        5.542       5.345       5.095       4.792       4.426       4.062       3.769       3.570       3.388       3.193    
        2.912       2.616       2.365       2.175       1.952       1.641       1.189      0.7634      0.3763       0.000    
  47    10.00       9.950       9.894       9.822       9.706       9.577       9.455       9.351       9.203       8.949    
        8.643       8.367       8.141       7.931       7.667       7.363       7.127       6.965       6.855       6.766    
        6.685       6.597       6.488       6.366       6.258       6.173       6.080       5.962       5.839       5.724    
        5.595       5.430       5.099       4.674       4.316       4.055       3.809       3.638       3.476       3.207    
        2.865       2.551       2.324       2.192       1.946       1.565       1.124      0.7364      0.3720       0.000    
  48    10.00       9.955       9.898       9.790       9.671       9.560       9.437       9.332       9.182       8.896    
        8.562       8.330       8.145       7.889       7.580       7.307       7.129       6.966       6.857       6.787    
        6.705       6.599       6.482       6.370       6.281       6.213       6.130       6.000       5.857       5.734    
        5.598       5.399       5.055       4.702       4.383       4.094       3.876       3.700       3.493       3.151    
        2.783       2.542       2.360       2.128       1.804       1.467       1.089      0.7417      0.3927       0.000    
  49    10.00       9.952       9.866       9.762       9.673       9.553       9.434       9.323       9.134       8.831    
        8.532       8.311       8.079       7.820       7.587       7.333       7.086       6.934       6.867       6.802    
        6.724       6.602       6.467       6.369       6.302       6.251       6.156       6.006       5.856       5.744    
        5.597       5.335       5.031       4.781       4.514       4.196       3.913       3.696       3.453       3.086    
        2.789       2.577       2.328       1.992       1.705       1.401       1.071      0.7539      0.3839       0.000    
  50    10.00       9.940       9.845       9.750       9.678       9.566       9.434       9.293       9.089       8.850    
        8.547       8.251       8.009       7.803       7.616       7.330       7.049       6.934       6.875       6.813    
        6.737       6.600       6.456       6.367       6.313       6.267       6.160       5.999       5.856       5.741    
        5.581       5.306       5.072       4.858       4.569       4.252       3.966       3.677       3.328       3.003    
        2.846       2.623       2.258       1.921       1.680       1.390       1.103      0.7364      0.3025       0.000    

 HEAD WILL BE SAVED ON UNIT   51 AT END OF TIME STEP  55, STRESS PERIOD    2

 DRAWDOWN WILL BE SAVED ON UNIT   52 AT END OF TIME STEP  55, STRESS PERIOD    2
1
  VOLUMETRIC BUDGET FOR ENTIRE MODEL AT END OF TIME STEP 55 IN STRESS PERIOD   2
  ------------------------------------------------------------------------------

     CUMULATIVE VOLUMES      L**3       RATES FOR THIS TIME STEP      L**3/T
     ------------------                 ------------------------

           IN:                                      IN:
           ---                                      ---
             STORAGE =       26713.9375               STORAGE =         450.6099
       CONSTANT HEAD =       30998.4121         CONSTANT HEAD =         587.2731
               WELLS =           0.0000                 WELLS =           0.0000

            TOTAL IN =       57712.3516              TOTAL IN =        1037.8831

          OUT:                                     OUT:
          ----                                     ----
             STORAGE =       9.3745E-03               STORAGE =           0.0000
       CONSTANT HEAD =       30212.3301         CONSTANT HEAD =         537.8828
               WELLS =       27500.0000                 WELLS =         500.0000

           TOTAL OUT =       57712.3398             TOTAL OUT =        1037.8828

            IN - OUT =       1.1719E-02              IN - OUT =       2.4414E-04

 PERCENT DISCREPANCY =           0.00     PERCENT DISCREPANCY =           0.00






          TIME SUMMARY AT END OF TIME STEP  55 IN STRESS PERIOD    2
                    SECONDS     MINUTES      HOURS       DAYS        YEARS
                    -----------------------------------------------------------
   TIME STEP LENGTH  86400.      1440.0      24.000      1.0000     2.73785E-03
 STRESS PERIOD TIME 4.75200E+06  79200.      1320.0      55.000     0.15058    
         TOTAL TIME 4.83840E+06  80640.      1344.0      56.000     0.15332    
1
 
 SOLVING FOR HEAD 

 OUTPUT CONTROL FOR STRESS PERIOD    2   TIME STEP  56
    SAVE HEAD FOR ALL LAYERS
    SAVE DRAWDOWN FOR ALL LAYERS
    SAVE BUDGET
    PRINT HEAD FOR ALL LAYERS
    PRINT BUDGET
 UBDSV1 SAVING "         STORAGE" ON UNIT  53 AT TIME STEP 56, STRESS PERIOD   2
 UBDSV2 SAVING "   CONSTANT HEAD" ON UNIT  53 AT TIME STEP 56, STRESS PERIOD   2
 UBDSV1 SAVING "FLOW RIGHT FACE " ON UNIT  53 AT TIME STEP 56, STRESS PERIOD   2
 UBDSV1 SAVING "FLOW FRONT FACE " ON UNIT  53 AT TIME STEP 56, STRESS PERIOD   2
1
              HEAD IN LAYER   1 AT END OF TIME STEP  56 IN STRESS PERIOD    2
  ---------------------------------------------------------------------------

            1           2           3           4           5           6           7           8           9          10
           11          12          13          14          15          16          17          18          19          20
           21          22          23          24          25          26          27          28          29          30
           31          32          33          34          35          36          37          38          39          40
           41          42          43          44          45          46          47          48          49          50
 ........................................................................................................................
   1    10.00       9.956       9.895       9.835       9.786       9.724       9.664       9.601       9.517       9.448    
        9.407       9.366       9.321       9.276       9.204       9.124       9.038       8.970       8.940       8.906    
        8.865       8.830       8.793       8.748       8.684       8.574       8.441       8.312       8.164       8.016    
        7.807       7.473       7.081       6.668       6.204       5.775       5.412       5.075       4.614       4.114    
        3.688       3.267       2.687       2.137       1.751       1.365       1.041      0.8316      0.5515       0.000    
   2    10.00       9.955       9.901       9.841       9.788       9.731       9.665       9.582       9.501       9.448    
        9.411       9.374       9.340       9.284       9.200       9.119       9.039       8.973       8.941       8.903    
        8.860       8.833       8.804       8.756       8.683       8.578       8.444       8.309       8.170       8.023    
        7.796       7.453       7.040       6.572       6.104       5.691       5.366       5.035       4.568       4.099    
        3.669       3.163       2.639       2.204       1.821       1.461       1.092      0.7897      0.4217       0.000    
   3    10.00       9.951       9.899       9.844       9.790       9.725       9.642       9.564       9.512       9.463    
        9.421       9.389       9.355       9.302       9.219       9.117       9.033       8.979       8.938       8.899    
        8.864       8.835       8.806       8.745       8.667       8.560       8.433       8.332       8.185       8.011    
        7.718       7.318       6.878       6.424       5.994       5.610       5.320       4.979       4.473       4.017    
        3.659       3.199       2.717       2.299       1.902       1.539       1.101      0.6776      0.2980       0.000    
   4    10.00       9.955       9.902       9.842       9.775       9.700       9.621       9.563       9.519       9.473    
        9.436       9.409       9.371       9.314       9.238       9.126       9.033       8.982       8.938       8.902    
        8.862       8.827       8.791       8.726       8.646       8.542       8.419       8.304       8.190       7.971    
        7.593       7.104       6.632       6.285       5.965       5.594       5.221       4.788       4.361       4.029    
        3.711       3.305       2.823       2.411       1.994       1.554       1.051      0.6016      0.2802       0.000    
   5    10.00       9.952       9.896       9.827       9.758       9.688       9.619       9.570       9.524       9.484    
        9.452       9.424       9.379       9.312       9.223       9.122       9.042       8.986       8.941       8.891    
        8.844       8.809       8.762       8.696       8.621       8.502       8.379       8.281       8.166       7.886    
        7.388       6.850       6.460       6.197       5.908       5.533       5.109       4.683       4.381       4.100    
        3.813       3.394       2.893       2.533       2.110       1.534      0.9559      0.5553      0.2793       0.000    
   6    10.00       9.940       9.874       9.820       9.755       9.683       9.624       9.579       9.532       9.496    
        9.467       9.431       9.374       9.296       9.220       9.135       9.049       8.980       8.922       8.864    
        8.823       8.785       8.742       8.672       8.561       8.447       8.356       8.249       8.056       7.652    
        7.097       6.609       6.312       6.115       5.881       5.470       5.011       4.674       4.452       4.207    
        3.930       3.552       3.055       2.608       2.084       1.468      0.8572      0.4883      0.2729       0.000    
   7    10.00       9.923       9.861       9.808       9.746       9.694       9.638       9.592       9.552       9.513    
        9.475       9.424       9.354       9.278       9.209       9.140       9.044       8.951       8.888       8.841    
        8.801       8.759       8.715       8.621       8.507       8.416       8.315       8.143       7.815       7.301    
        6.777       6.396       6.214       6.062       5.765       5.358       5.056       4.764       4.525       4.356    
        4.077       3.686       3.154       2.576       1.930       1.223      0.7185      0.4958      0.2511       0.000    
   8    10.00       9.918       9.860       9.804       9.748       9.702       9.654       9.610       9.571       9.534    
        9.478       9.404       9.331       9.264       9.199       9.113       8.999       8.912       8.864       8.819    
        8.771       8.736       8.663       8.561       8.460       8.352       8.162       7.888       7.439       6.994    
        6.605       6.307       6.170       5.984       5.648       5.336       5.086       4.873       4.682       4.483    
        4.195       3.714       3.100       2.440       1.704       1.104      0.7604      0.4864      0.2241       0.000    
   9    10.00       9.922       9.857       9.802       9.762       9.723       9.676       9.632       9.588       9.546    
        9.474       9.383       9.308       9.240       9.162       9.065       8.963       8.885       8.835       8.788    
        8.745       8.688       8.585       8.491       8.387       8.235       7.958       7.547       7.103       6.785    
        6.480       6.264       6.110       5.863       5.554       5.314       5.137       4.976       4.814       4.598    
        4.240       3.739       3.086       2.349       1.672       1.143      0.7758      0.4825      0.2392       0.000    
  10    10.00       9.921       9.855       9.809       9.774       9.736       9.695       9.657       9.605       9.538    
        9.450       9.359       9.285       9.211       9.129       9.017       8.914       8.851       8.807       8.760    
        8.715       8.621       8.511       8.407       8.262       8.034       7.619       7.174       6.827       6.588    
        6.407       6.232       6.024       5.772       5.511       5.331       5.200       5.067       4.886       4.636    
        4.252       3.703       3.005       2.346       1.810       1.310      0.8309      0.5124      0.2701       0.000    
  11    10.00       9.910       9.859       9.821       9.785       9.752       9.716       9.664       9.592       9.516    
        9.428       9.339       9.268       9.169       9.056       8.958       8.884       8.826       8.782       8.729    
        8.649       8.527       8.369       8.214       7.960       7.621       7.253       6.960       6.682       6.511    
        6.359       6.129       5.895       5.708       5.537       5.405       5.276       5.105       4.891       4.597    
        4.237       3.752       3.046       2.445       1.970       1.489      0.9576      0.5078      0.2039       0.000    
  12    10.00       9.918       9.868       9.828       9.797       9.763       9.723       9.653       9.567       9.489    
        9.406       9.317       9.221       9.101       9.008       8.924       8.847       8.798       8.741       8.660    
        8.504       8.295       8.073       7.842       7.527       7.268       7.076       6.775       6.547       6.413    
        6.252       6.038       5.855       5.698       5.588       5.469       5.315       5.122       4.866       4.558    
        4.203       3.729       3.082       2.545       2.115       1.596       1.008      0.4806      0.1598       0.000    
  13    10.00       9.936       9.889       9.846       9.808       9.768       9.709       9.623       9.533       9.456    
        9.368       9.279       9.178       9.055       8.948       8.864       8.809       8.746       8.666       8.475    
        8.189       7.935       7.695       7.407       7.161       7.045       6.809       6.536       6.420       6.310    
        6.138       5.954       5.824       5.718       5.627       5.519       5.342       5.102       4.852       4.534    
        4.181       3.698       3.030       2.529       2.130       1.562      0.9388      0.4347      0.1256       0.000    
  14    10.00       9.953       9.911       9.865       9.819       9.758       9.672       9.582       9.502       9.414    
        9.326       9.244       9.123       8.986       8.888       8.821       8.731       8.635       8.444       8.109    
        7.803       7.577       7.261       7.026       6.915       6.785       6.542       6.385       6.269       6.163    
        6.019       5.907       5.830       5.745       5.651       5.540       5.342       5.079       4.811       4.487    
        4.108       3.525       2.896       2.491       2.002       1.456      0.9257      0.3971      0.1022       0.000    
  15    10.00       9.963       9.920       9.874       9.821       9.729       9.624       9.545       9.465       9.380    
        9.313       9.217       9.058       8.908       8.818       8.700       8.579       8.455       8.135       7.741    
        7.489       7.168       6.880       6.792       6.725       6.555       6.360       6.206       6.124       6.047    
        5.961       5.898       5.839       5.769       5.670       5.534       5.305       5.006       4.724       4.425    
        4.015       3.447       2.903       2.358       1.766       1.278      0.7960      0.3499      0.1050       0.000    
  16    10.00       9.973       9.931       9.877       9.793       9.681       9.590       9.525       9.453       9.366    
        9.277       9.138       8.955       8.811       8.681       8.540       8.457       8.208       7.742       7.379    
        7.125       6.809       6.703       6.650       6.525       6.310       6.153       6.082       6.057       6.006    
        5.944       5.893       5.847       5.772       5.653       5.484       5.210       4.938       4.715       4.394    
        3.927       3.315       2.688       2.082       1.579       1.096      0.6783      0.3321      0.1120       0.000    
  17    10.00       9.973       9.929       9.857       9.754       9.642       9.565       9.506       9.426       9.328    
        9.179       9.003       8.838       8.680       8.518       8.383       8.178       7.760       7.325       7.074    
        6.824       6.632       6.548       6.426       6.230       6.071       6.030       6.023       6.009       5.965    
        5.918       5.879       5.837       5.767       5.598       5.365       5.130       4.938       4.726       4.322    
        3.697       3.072       2.474       1.879       1.351      0.8869      0.5685      0.2970      0.1220       0.000    
  18    10.00       9.966       9.915       9.829       9.701       9.610       9.550       9.469       9.377       9.241    
        9.061       8.904       8.737       8.524       8.312       8.086       7.788       7.363       7.038       6.818    
        6.615       6.454       6.326       6.152       6.018       5.978       5.968       5.966       5.944       5.913    
        5.886       5.858       5.809       5.690       5.514       5.316       5.118       4.946       4.650       4.109    
        3.469       2.803       2.163       1.674       1.253      0.8315      0.4883      0.2456      0.1177       0.000    
  19    10.00       9.958       9.902       9.778       9.649       9.596       9.529       9.429       9.315       9.169    
        9.005       8.856       8.615       8.291       8.038       7.806       7.445       7.058       6.839       6.670    
        6.461       6.265       6.124       5.990       5.926       5.912       5.907       5.890       5.863       5.853    
        5.841       5.817       5.746       5.632       5.483       5.292       5.112       4.865       4.356       3.793    
        3.276       2.587       1.978       1.590       1.172      0.7502      0.4409      0.2501      0.1281       0.000    
  20    10.00       9.949       9.855       9.727       9.634       9.576       9.504       9.397       9.270       9.136    
        8.967       8.741       8.380       8.059       7.833       7.546       7.186       6.975       6.775       6.541    
        6.310       6.135       5.989       5.894       5.847       5.824       5.796       5.789       5.776       5.782    
        5.782       5.761       5.687       5.581       5.429       5.263       5.038       4.587       4.035       3.584    
        3.022       2.386       1.931       1.555       1.133      0.6658      0.3851      0.2604      0.1342       0.000    
  21    10.00       9.916       9.815       9.708       9.617       9.556       9.478       9.353       9.226       9.100    
        8.874       8.528       8.160       7.917       7.664       7.362       7.095       6.895       6.654       6.406    
        6.185       6.013       5.885       5.787       5.721       5.671       5.656       5.665       5.669       5.685    
        5.703       5.675       5.600       5.500       5.347       5.164       4.812       4.336       3.898       3.349    
        2.816       2.314       1.929       1.548      0.9546      0.5391      0.3898      0.2941      0.1410       0.000    
  22    10.00       9.894       9.773       9.678       9.605       9.532       9.421       9.305       9.194       9.019    
        8.729       8.338       8.044       7.825       7.542       7.231       6.975       6.763       6.543       6.309    
        6.089       5.907       5.737       5.584       5.498       5.479       5.497       5.512       5.550       5.575    
        5.597       5.565       5.504       5.399       5.245       5.063       4.702       4.242       3.669       3.138    
        2.750       2.349       1.886       1.249      0.7446      0.5374      0.4086      0.2720      0.1006       0.000    
  23    10.00       9.863       9.745       9.670       9.593       9.484       9.363       9.276       9.135       8.916    
        8.576       8.241       8.030       7.756       7.389       7.080       6.879       6.706       6.500       6.248    
        6.016       5.804       5.559       5.272       5.063       5.107       5.243       5.333       5.414       5.469    
        5.490       5.473       5.415       5.318       5.173       4.967       4.602       4.033       3.457       3.082    
        2.725       2.219       1.554       1.007      0.7328      0.5480      0.3920      0.2313      9.2049E-02   0.000    
  24    10.00       9.842       9.757       9.666       9.557       9.443       9.350       9.253       9.117       8.827    
        8.508       8.260       8.022       7.657       7.253       7.031       6.861       6.692       6.458       6.220    
        6.015       5.745       5.353       4.810       4.147       4.418       4.824       5.107       5.274       5.361    
        5.403       5.392       5.346       5.238       5.077       4.818       4.355       3.815       3.383       2.992    
        2.554       1.989       1.395      0.9762      0.7342      0.5339      0.3577      0.2506      0.1230       0.000    
  25    10.00       9.860       9.772       9.659       9.544       9.439       9.347       9.258       9.054       8.772    
        8.526       8.276       7.964       7.562       7.263       7.064       6.872       6.668       6.455       6.250    
        6.014       5.755       5.196       4.162       2.320       3.693       4.437       4.880       5.154       5.296    
        5.346       5.340       5.285       5.136       4.915       4.561       4.124       3.699       3.329       2.871    
        2.342       1.802       1.301      0.9676      0.7610      0.5549      0.3769      0.2625      0.1634       0.000    
  26    10.00       9.879       9.793       9.674       9.551       9.456       9.357       9.226       9.024       8.827    
        8.597       8.255       7.873       7.549       7.323       7.129       6.906       6.655       6.448       6.277    
        6.081       5.826       5.343       4.583       3.740       4.096       4.546       4.878       5.132       5.283    
        5.322       5.303       5.212       5.033       4.787       4.449       3.966       3.563       3.215       2.659    
        2.060       1.587       1.288       1.056      0.8206      0.5990      0.4108      0.2851      0.1666       0.000    
  27    10.00       9.903       9.798       9.690       9.584       9.471       9.361       9.229       9.062       8.883    
        8.593       8.208       7.873       7.604       7.414       7.191       6.902       6.640       6.479       6.338    
        6.185       5.949       5.584       5.136       4.682       4.653       4.826       5.039       5.225       5.311    
        5.316       5.282       5.174       4.977       4.689       4.231       3.775       3.442       2.913       2.327    
        1.862       1.558       1.333       1.130      0.8971      0.6538      0.4463      0.3138      0.1980       0.000    
  28    10.00       9.910       9.823       9.725       9.621       9.502       9.380       9.252       9.108       8.898    
        8.559       8.224       7.933       7.669       7.468       7.250       7.013       6.761       6.534       6.388    
        6.266       6.098       5.863       5.538       5.261       5.100       5.136       5.270       5.333       5.353    
        5.327       5.268       5.133       4.883       4.500       4.023       3.629       3.159       2.607       2.191    
        1.859       1.601       1.381       1.169      0.9426      0.7134      0.5063      0.3573      0.2042       0.000    
  29    10.00       9.916       9.831       9.754       9.652       9.545       9.426       9.295       9.136       8.856    
        8.540       8.257       7.980       7.758       7.530       7.298       7.084       6.882       6.664       6.472    
        6.341       6.212       6.057       5.864       5.601       5.473       5.458       5.463       5.464       5.418    
        5.346       5.229       5.065       4.740       4.270       3.848       3.448       2.956       2.514       2.209    
        1.939       1.657       1.407       1.204      0.9998      0.7545      0.5350      0.3734      0.2071       0.000    
  30    10.00       9.927       9.857       9.789       9.698       9.592       9.486       9.336       9.123       8.869    
        8.550       8.243       8.017       7.795       7.579       7.369       7.196       7.010       6.798       6.595    
        6.433       6.325       6.193       6.062       5.920       5.802       5.760       5.667       5.601       5.493    
        5.345       5.143       4.910       4.564       4.194       3.796       3.368       2.907       2.572       2.294    
        1.974       1.690       1.472       1.242      0.9982      0.7809      0.5704      0.3966      0.2229       0.000    
  31    10.00       9.942       9.884       9.820       9.752       9.666       9.546       9.361       9.119       8.850    
        8.544       8.269       8.063       7.847       7.646       7.454       7.282       7.136       6.924       6.721    
        6.573       6.457       6.353       6.252       6.176       6.066       5.949       5.843       5.706       5.537    
        5.299       5.038       4.796       4.513       4.158       3.737       3.302       2.923       2.686       2.421    
        2.066       1.754       1.505       1.271       1.045      0.8217      0.6045      0.4174      0.2162       0.000    
  32    10.00       9.950       9.908       9.853       9.788       9.707       9.579       9.367       9.147       8.893    
        8.578       8.324       8.130       7.908       7.695       7.538       7.389       7.217       7.046       6.847    
        6.694       6.572       6.478       6.389       6.302       6.214       6.076       5.939       5.765       5.531    
        5.255       4.992       4.739       4.467       4.117       3.737       3.396       3.073       2.801       2.498    
        2.169       1.861       1.599       1.329       1.083      0.8936      0.6667      0.4097      0.1829       0.000    
  33    10.00       9.958       9.925       9.878       9.812       9.726       9.560       9.351       9.173       8.946    
        8.659       8.418       8.190       7.941       7.754       7.623       7.493       7.317       7.130       6.959    
        6.790       6.665       6.549       6.452       6.374       6.287       6.141       5.953       5.767       5.542    
        5.264       5.025       4.759       4.422       4.094       3.756       3.479       3.224       2.915       2.581    
        2.297       2.005       1.717       1.438       1.179      0.9678      0.7134      0.4118      0.1790       0.000    
  34    10.00       9.965       9.940       9.900       9.815       9.689       9.536       9.391       9.207       8.984    
        8.740       8.479       8.223       7.981       7.828       7.720       7.581       7.413       7.202       7.038    
        6.886       6.730       6.605       6.508       6.430       6.319       6.150       5.969       5.769       5.507    
        5.262       5.066       4.805       4.478       4.150       3.838       3.575       3.322       3.003       2.700    
        2.446       2.165       1.850       1.572       1.309       1.067      0.7632      0.4633      0.2430       0.000    
  35    10.00       9.971       9.941       9.884       9.779       9.656       9.547       9.422       9.274       9.034    
        8.767       8.507       8.250       8.051       7.914       7.800       7.652       7.475       7.272       7.077    
        6.923       6.778       6.651       6.558       6.472       6.358       6.172       5.957       5.721       5.448    
        5.262       5.058       4.793       4.552       4.278       3.948       3.657       3.444       3.142       2.819    
        2.573       2.285       1.970       1.696       1.423       1.157      0.8748      0.5798      0.2868       0.000    
  36    10.00       9.964       9.916       9.854       9.757       9.643       9.552       9.445       9.286       9.055    
        8.766       8.492       8.309       8.157       8.022       7.877       7.703       7.525       7.310       7.059    
        6.891       6.780       6.670       6.591       6.504       6.361       6.153       5.915       5.627       5.378    
        5.217       5.051       4.820       4.588       4.358       4.064       3.774       3.546       3.276       2.923    
        2.654       2.333       2.018       1.809       1.543       1.248      0.9650      0.6567      0.3213       0.000    
  37    10.00       9.946       9.894       9.832       9.738       9.639       9.535       9.434       9.289       9.021    
        8.721       8.511       8.403       8.257       8.090       7.946       7.735       7.514       7.246       6.991    
        6.876       6.783       6.676       6.592       6.490       6.316       6.104       5.796       5.531       5.365    
        5.223       5.043       4.816       4.633       4.398       4.120       3.893       3.674       3.371       2.983    
        2.630       2.328       2.109       1.893       1.627       1.346       1.063      0.7242      0.3977       0.000    
  38    10.00       9.938       9.872       9.808       9.726       9.631       9.522       9.412       9.247       8.996    
        8.772       8.605       8.468       8.336       8.157       7.926       7.690       7.437       7.138       6.965    
        6.872       6.751       6.644       6.572       6.457       6.260       5.949       5.658       5.517       5.389    
        5.240       5.050       4.844       4.661       4.432       4.178       3.992       3.770       3.383       2.956    
        2.649       2.397       2.180       1.956       1.721       1.436       1.154      0.8375      0.4139       0.000    
  39    10.00       9.921       9.857       9.799       9.720       9.613       9.498       9.385       9.230       9.025    
        8.849       8.722       8.568       8.389       8.134       7.847       7.582       7.287       7.074       6.960    
        6.824       6.684       6.602       6.533       6.422       6.161       5.845       5.668       5.538       5.406    
        5.237       5.057       4.859       4.676       4.502       4.294       4.049       3.779       3.398       3.001    
        2.677       2.417       2.246       2.058       1.793       1.511       1.225      0.8717      0.4085       0.000    
  40    10.00       9.913       9.851       9.793       9.711       9.602       9.490       9.378       9.240       9.070    
        8.925       8.814       8.627       8.350       8.033       7.746       7.465       7.212       7.055       6.916    
        6.758       6.636       6.566       6.480       6.332       6.099       5.884       5.706       5.559       5.423    
        5.258       5.064       4.876       4.723       4.570       4.360       4.077       3.795       3.408       2.981    
        2.678       2.472       2.284       2.124       1.845       1.536       1.274      0.8741      0.4070       0.000    
  41    10.00       9.921       9.850       9.779       9.692       9.606       9.512       9.408       9.272       9.117    
        8.980       8.846       8.607       8.280       7.953       7.684       7.408       7.166       7.013       6.862    
        6.704       6.597       6.519       6.418       6.264       6.088       5.943       5.770       5.587       5.426    
        5.268       5.092       4.913       4.780       4.617       4.407       4.124       3.735       3.291       2.962    
        2.742       2.543       2.348       2.125       1.835       1.539       1.315      0.9313      0.4223       0.000    
  42    10.00       9.921       9.840       9.778       9.714       9.634       9.535       9.417       9.301       9.183    
        9.008       8.780       8.503       8.191       7.888       7.643       7.373       7.136       6.972       6.802    
        6.655       6.560       6.475       6.382       6.242       6.119       5.996       5.800       5.595       5.450    
        5.320       5.129       4.936       4.807       4.656       4.432       4.085       3.626       3.219       2.974    
        2.808       2.630       2.382       2.085       1.807       1.576       1.343      0.9822      0.4846       0.000    
  43    10.00       9.914       9.846       9.793       9.742       9.666       9.568       9.456       9.327       9.145    
        8.922       8.687       8.428       8.103       7.830       7.604       7.362       7.123       6.916       6.758    
        6.625       6.529       6.456       6.380       6.261       6.133       6.008       5.805       5.627       5.520    
        5.362       5.155       4.969       4.836       4.660       4.370       3.968       3.533       3.237       3.049    
        2.872       2.668       2.363       2.059       1.813       1.590       1.389      0.9960      0.4552       0.000    
  44    10.00       9.913       9.855       9.807       9.746       9.689       9.608       9.460       9.270       9.060    
        8.872       8.635       8.322       8.051       7.832       7.572       7.307       7.057       6.851       6.712    
        6.614       6.532       6.458       6.379       6.276       6.146       5.977       5.809       5.688       5.561    
        5.419       5.238       5.025       4.823       4.608       4.283       3.862       3.504       3.275       3.093    
        2.915       2.673       2.378       2.115       1.851       1.612       1.367      0.8992      0.4135       0.000    
  45    10.00       9.923       9.868       9.806       9.747       9.697       9.566       9.390       9.198       9.018    
        8.863       8.547       8.222       8.024       7.790       7.502       7.214       6.982       6.815       6.705    
        6.630       6.552       6.471       6.378       6.263       6.136       5.993       5.864       5.757       5.625    
        5.461       5.274       5.054       4.798       4.542       4.192       3.797       3.515       3.341       3.154    
        2.916       2.639       2.386       2.146       1.913       1.674       1.277      0.7991      0.4022       0.000    
  46    10.00       9.938       9.879       9.807       9.738       9.640       9.498       9.365       9.204       9.011    
        8.755       8.454       8.194       7.943       7.694       7.415       7.148       6.976       6.839       6.733    
        6.657       6.582       6.479       6.362       6.252       6.144       6.032       5.912       5.805       5.689    
        5.540       5.343       5.094       4.791       4.425       4.061       3.769       3.570       3.387       3.193    
        2.912       2.616       2.364       2.174       1.952       1.641       1.189      0.7633      0.3763       0.000    
  47    10.00       9.949       9.894       9.822       9.705       9.576       9.454       9.350       9.202       8.948    
        8.642       8.366       8.139       7.930       7.665       7.362       7.126       6.963       6.853       6.765    
        6.683       6.595       6.487       6.364       6.256       6.171       6.078       5.960       5.837       5.723    
        5.594       5.428       5.098       4.673       4.315       4.054       3.809       3.637       3.476       3.207    
        2.864       2.551       2.323       2.192       1.946       1.565       1.124      0.7364      0.3720       0.000    
  48    10.00       9.955       9.898       9.790       9.671       9.559       9.437       9.331       9.182       8.895    
        8.561       8.329       8.144       7.887       7.579       7.305       7.128       6.964       6.855       6.786    
        6.703       6.597       6.480       6.368       6.279       6.211       6.128       5.998       5.856       5.732    
        5.597       5.398       5.054       4.701       4.382       4.094       3.875       3.699       3.493       3.151    
        2.782       2.541       2.360       2.128       1.804       1.467       1.088      0.7416      0.3926       0.000    
  49    10.00       9.952       9.866       9.762       9.672       9.553       9.433       9.322       9.134       8.830    
        8.531       8.310       8.078       7.819       7.586       7.331       7.084       6.932       6.865       6.801    
        6.722       6.600       6.465       6.368       6.300       6.249       6.154       6.004       5.854       5.742    
        5.595       5.334       5.030       4.780       4.513       4.195       3.912       3.695       3.452       3.086    
        2.789       2.577       2.327       1.992       1.705       1.401       1.070      0.7539      0.3839       0.000    
  50    10.00       9.940       9.845       9.750       9.678       9.566       9.434       9.292       9.088       8.849    
        8.546       8.249       8.008       7.801       7.614       7.329       7.047       6.932       6.874       6.811    
        6.736       6.599       6.454       6.366       6.312       6.265       6.159       5.997       5.854       5.740    
        5.580       5.305       5.071       4.857       4.568       4.252       3.965       3.677       3.327       3.003    
        2.846       2.623       2.258       1.921       1.680       1.390       1.103      0.7363      0.3025       0.000    

 HEAD WILL BE SAVED ON UNIT   51 AT END OF TIME STEP  56, STRESS PERIOD    2

 DRAWDOWN WILL BE SAVED ON UNIT   52 AT END OF TIME STEP  56, STRESS PERIOD    2
1
  VOLUMETRIC BUDGET FOR ENTIRE MODEL AT END OF TIME STEP 56 IN STRESS PERIOD   2
  ------------------------------------------------------------------------------

     CUMULATIVE VOLUMES      L**3       RATES FOR THIS TIME STEP      L**3/T
     ------------------                 ------------------------

           IN:                                      IN:
           ---                                      ---
             STORAGE =       27162.6309               STORAGE =         448.6930
       CONSTANT HEAD =       31587.4531         CONSTANT HEAD =         589.0414
               WELLS =           0.0000                 WELLS =           0.0000

            TOTAL IN =       58750.0859              TOTAL IN =        1037.7344

          OUT:                                     OUT:
          ----                                     ----
             STORAGE =       9.3745E-03               STORAGE =           0.0000
       CONSTANT HEAD =       30750.0645         CONSTANT HEAD =         537.7347
               WELLS =       28000.0000                 WELLS =         500.0000

           TOTAL OUT =       58750.0742             TOTAL OUT =        1037.7346

            IN - OUT =       1.1719E-02              IN - OUT =      -2.4414E-04

 PERCENT DISCREPANCY =           0.00     PERCENT DISCREPANCY =           0.00






          TIME SUMMARY AT END OF TIME STEP  56 IN STRESS PERIOD    2
                    SECONDS     MINUTES      HOURS       DAYS        YEARS
                    -----------------------------------------------------------
   TIME STEP LENGTH  86400.      1440.0      24.000      1.0000     2.73785E-03
 STRESS PERIOD TIME 4.83840E+06  80640.      1344.0      56.000     0.15332    
         TOTAL TIME 4.92480E+06  82080.      1368.0      57.000     0.15606    
1
 
 SOLVING FOR HEAD 

 OUTPUT CONTROL FOR STRESS PERIOD    2   TIME STEP  57
    SAVE HEAD FOR ALL LAYERS
    SAVE DRAWDOWN FOR ALL LAYERS
    SAVE BUDGET
    PRINT HEAD FOR ALL LAYERS
    PRINT BUDGET
 UBDSV1 SAVING "         STORAGE" ON UNIT  53 AT TIME STEP 57, STRESS PERIOD   2
 UBDSV2 SAVING "   CONSTANT HEAD" ON UNIT  53 AT TIME STEP 57, STRESS PERIOD   2
 UBDSV1 SAVING "FLOW RIGHT FACE " ON UNIT  53 AT TIME STEP 57, STRESS PERIOD   2
 UBDSV1 SAVING "FLOW FRONT FACE " ON UNIT  53 AT TIME STEP 57, STRESS PERIOD   2
1
              HEAD IN LAYER   1 AT END OF TIME STEP  57 IN STRESS PERIOD    2
  ---------------------------------------------------------------------------

            1           2           3           4           5           6           7           8           9          10
           11          12          13          14          15          16          17          18          19          20
           21          22          23          24          25          26          27          28          29          30
           31          32          33          34          35          36          37          38          39          40
           41          42          43          44          45          46          47          48          49          50
 ........................................................................................................................
   1    10.00       9.956       9.895       9.835       9.785       9.723       9.663       9.600       9.515       9.446    
        9.405       9.364       9.319       9.274       9.201       9.122       9.035       8.967       8.937       8.903    
        8.862       8.826       8.790       8.744       8.681       8.570       8.438       8.308       8.160       8.013    
        7.803       7.470       7.078       6.664       6.201       5.772       5.409       5.072       4.612       4.112    
        3.686       3.266       2.686       2.135       1.750       1.364       1.040      0.8311      0.5512       0.000    
   2    10.00       9.955       9.901       9.841       9.787       9.730       9.664       9.581       9.499       9.446    
        9.409       9.372       9.338       9.281       9.198       9.116       9.037       8.970       8.937       8.899    
        8.857       8.830       8.801       8.752       8.679       8.574       8.440       8.305       8.166       8.019    
        7.793       7.449       7.036       6.569       6.101       5.688       5.363       5.033       4.566       4.096    
        3.667       3.162       2.638       2.203       1.820       1.460       1.091      0.7893      0.4214       0.000    
   3    10.00       9.951       9.899       9.844       9.789       9.724       9.641       9.562       9.510       9.462    
        9.419       9.387       9.353       9.300       9.216       9.114       9.030       8.976       8.934       8.896    
        8.861       8.832       8.803       8.742       8.664       8.557       8.430       8.328       8.181       8.007    
        7.714       7.315       6.874       6.420       5.990       5.607       5.317       4.976       4.471       4.014    
        3.657       3.197       2.715       2.298       1.901       1.538       1.101      0.6772      0.2979       0.000    
   4    10.00       9.955       9.902       9.841       9.774       9.699       9.620       9.561       9.517       9.471    
        9.434       9.407       9.369       9.311       9.235       9.123       9.030       8.979       8.935       8.899    
        8.859       8.824       8.787       8.722       8.642       8.539       8.415       8.301       8.186       7.968    
        7.589       7.100       6.628       6.281       5.961       5.590       5.218       4.785       4.358       4.026    
        3.709       3.302       2.821       2.409       1.993       1.554       1.050      0.6013      0.2801       0.000    
   5    10.00       9.951       9.896       9.827       9.757       9.687       9.618       9.568       9.522       9.483    
        9.451       9.422       9.377       9.310       9.221       9.119       9.039       8.983       8.938       8.888    
        8.841       8.805       8.759       8.692       8.617       8.498       8.375       8.277       8.162       7.882    
        7.384       6.845       6.456       6.192       5.904       5.529       5.105       4.679       4.377       4.096    
        3.810       3.392       2.891       2.531       2.108       1.534      0.9554      0.5550      0.2792       0.000    
   6    10.00       9.940       9.873       9.819       9.754       9.681       9.623       9.578       9.531       9.495    
        9.465       9.429       9.372       9.294       9.217       9.132       9.046       8.977       8.918       8.860    
        8.819       8.781       8.738       8.668       8.557       8.443       8.351       8.244       8.052       7.647    
        7.092       6.603       6.306       6.109       5.876       5.466       5.006       4.670       4.448       4.203    
        3.927       3.549       3.053       2.606       2.083       1.467      0.8567      0.4881      0.2727       0.000    
   7    10.00       9.923       9.860       9.808       9.745       9.693       9.637       9.590       9.550       9.512    
        9.473       9.422       9.352       9.276       9.207       9.137       9.041       8.947       8.885       8.837    
        8.797       8.755       8.711       8.616       8.503       8.411       8.311       8.138       7.810       7.295    
        6.770       6.390       6.208       6.056       5.759       5.352       5.051       4.759       4.521       4.352    
        4.073       3.683       3.152       2.574       1.929       1.222      0.7181      0.4956      0.2510       0.000    
   8    10.00       9.918       9.860       9.804       9.748       9.701       9.653       9.608       9.570       9.532    
        9.476       9.402       9.328       9.262       9.197       9.110       8.996       8.908       8.860       8.815    
        8.767       8.732       8.658       8.557       8.456       8.348       8.156       7.883       7.433       6.987    
        6.598       6.301       6.163       5.978       5.642       5.330       5.081       4.868       4.677       4.479    
        4.191       3.711       3.098       2.438       1.703       1.104      0.7600      0.4861      0.2240       0.000    
   9    10.00       9.922       9.857       9.801       9.761       9.722       9.675       9.631       9.587       9.544    
        9.472       9.381       9.305       9.237       9.159       9.062       8.959       8.881       8.831       8.784    
        8.741       8.683       8.581       8.486       8.382       8.230       7.952       7.540       7.096       6.777    
        6.472       6.256       6.103       5.856       5.548       5.308       5.131       4.970       4.809       4.593    
        4.236       3.736       3.084       2.347       1.671       1.143      0.7753      0.4823      0.2391       0.000    
  10    10.00       9.920       9.854       9.808       9.773       9.735       9.694       9.655       9.604       9.536    
        9.448       9.357       9.282       9.208       9.125       9.013       8.910       8.847       8.803       8.756    
        8.711       8.616       8.506       8.402       8.256       8.028       7.612       7.166       6.819       6.580    
        6.399       6.223       6.017       5.764       5.504       5.324       5.194       5.061       4.881       4.631    
        4.247       3.700       3.002       2.345       1.809       1.309      0.8304      0.5121      0.2699       0.000    
  11    10.00       9.910       9.859       9.821       9.785       9.751       9.715       9.663       9.590       9.514    
        9.426       9.336       9.265       9.166       9.052       8.954       8.880       8.821       8.778       8.725    
        8.644       8.522       8.363       8.208       7.953       7.613       7.244       6.951       6.672       6.502    
        6.350       6.120       5.887       5.700       5.529       5.398       5.269       5.098       4.885       4.592    
        4.232       3.748       3.043       2.443       1.968       1.488      0.9571      0.5076      0.2038       0.000    
  12    10.00       9.918       9.867       9.827       9.797       9.762       9.722       9.651       9.565       9.486    
        9.403       9.314       9.217       9.098       9.004       8.920       8.842       8.793       8.737       8.655    
        8.498       8.288       8.066       7.834       7.518       7.258       7.066       6.765       6.537       6.404    
        6.243       6.029       5.845       5.689       5.579       5.461       5.307       5.115       4.860       4.553    
        4.199       3.726       3.079       2.544       2.114       1.595       1.007      0.4804      0.1597       0.000    
  13    10.00       9.936       9.889       9.846       9.807       9.767       9.708       9.621       9.531       9.454    
        9.366       9.276       9.174       9.051       8.943       8.859       8.804       8.741       8.660       8.469    
        8.182       7.927       7.686       7.397       7.151       7.035       6.798       6.525       6.409       6.299    
        6.128       5.944       5.814       5.708       5.618       5.510       5.334       5.095       4.845       4.528    
        4.176       3.695       3.028       2.527       2.128       1.561      0.9383      0.4346      0.1256       0.000    
  14    10.00       9.953       9.911       9.865       9.818       9.757       9.671       9.580       9.499       9.411    
        9.323       9.240       9.119       8.981       8.883       8.816       8.726       8.629       8.438       8.101    
        7.794       7.567       7.250       7.014       6.904       6.774       6.530       6.373       6.257       6.151    
        6.007       5.896       5.819       5.735       5.642       5.531       5.334       5.072       4.804       4.481    
        4.104       3.522       2.893       2.489       2.000       1.456      0.9253      0.3969      0.1022       0.000    
  15    10.00       9.963       9.920       9.874       9.820       9.728       9.622       9.542       9.462       9.377    
        9.310       9.213       9.054       8.903       8.813       8.694       8.572       8.448       8.127       7.732    
        7.478       7.157       6.868       6.780       6.713       6.542       6.347       6.193       6.111       6.035    
        5.949       5.887       5.828       5.758       5.660       5.524       5.297       4.999       4.717       4.419    
        4.010       3.444       2.900       2.356       1.765       1.277      0.7957      0.3497      0.1050       0.000    
  16    10.00       9.973       9.931       9.876       9.792       9.679       9.588       9.523       9.451       9.363    
        9.273       9.134       8.950       8.805       8.674       8.533       8.450       8.200       7.732       7.368    
        7.113       6.797       6.690       6.637       6.511       6.296       6.139       6.069       6.044       5.993    
        5.931       5.881       5.835       5.761       5.643       5.474       5.201       4.930       4.708       4.388    
        3.922       3.311       2.686       2.080       1.578       1.095      0.6779      0.3320      0.1120       0.000    
  17    10.00       9.972       9.928       9.857       9.753       9.640       9.563       9.503       9.423       9.324    
        9.175       8.998       8.832       8.673       8.511       8.375       8.170       7.750       7.313       7.062    
        6.811       6.618       6.534       6.412       6.216       6.056       6.016       6.009       5.995       5.952    
        5.905       5.867       5.825       5.756       5.588       5.356       5.121       4.930       4.719       4.316    
        3.692       3.069       2.472       1.877       1.350      0.8864      0.5682      0.2968      0.1220       0.000    
  18    10.00       9.966       9.915       9.829       9.699       9.608       9.548       9.466       9.374       9.237    
        9.056       8.898       8.730       8.517       8.303       8.077       7.777       7.351       7.025       6.805    
        6.601       6.439       6.311       6.137       6.004       5.963       5.953       5.951       5.930       5.899    
        5.873       5.845       5.796       5.679       5.503       5.306       5.109       4.938       4.642       4.103    
        3.465       2.800       2.161       1.673       1.253      0.8310      0.4880      0.2455      0.1177       0.000    
  19    10.00       9.958       9.902       9.777       9.648       9.594       9.527       9.426       9.312       9.164    
        8.999       8.850       8.607       8.283       8.029       7.796       7.433       7.045       6.825       6.656    
        6.446       6.250       6.109       5.975       5.911       5.897       5.893       5.875       5.848       5.839    
        5.827       5.804       5.734       5.619       5.472       5.282       5.103       4.857       4.350       3.788    
        3.272       2.584       1.977       1.589       1.171      0.7498      0.4407      0.2500      0.1281       0.000    
  20    10.00       9.949       9.854       9.726       9.632       9.574       9.501       9.393       9.266       9.132    
        8.962       8.734       8.371       8.048       7.822       7.534       7.173       6.962       6.761       6.526    
        6.295       6.120       5.974       5.879       5.832       5.809       5.781       5.774       5.761       5.767    
        5.767       5.747       5.674       5.568       5.417       5.252       5.029       4.580       4.029       3.580    
        3.019       2.384       1.929       1.554       1.133      0.6654      0.3849      0.2603      0.1341       0.000    
  21    10.00       9.916       9.814       9.707       9.614       9.553       9.475       9.349       9.222       9.095    
        8.868       8.520       8.150       7.906       7.653       7.349       7.082       6.881       6.640       6.391    
        6.170       5.998       5.870       5.771       5.705       5.656       5.640       5.649       5.653       5.670    
        5.688       5.660       5.586       5.487       5.335       5.153       4.803       4.329       3.892       3.345    
        2.813       2.312       1.928       1.547      0.9541      0.5388      0.3896      0.2940      0.1410       0.000    
  22    10.00       9.894       9.772       9.676       9.603       9.529       9.418       9.301       9.189       9.013    
        8.722       8.328       8.034       7.813       7.529       7.218       6.962       6.749       6.529       6.294    
        6.074       5.892       5.721       5.568       5.482       5.463       5.481       5.497       5.535       5.559    
        5.581       5.550       5.490       5.385       5.233       5.052       4.693       4.235       3.664       3.134    
        2.748       2.348       1.885       1.248      0.7443      0.5372      0.4084      0.2719      0.1006       0.000    
  23    10.00       9.863       9.744       9.668       9.591       9.481       9.360       9.272       9.130       8.910    
        8.568       8.232       8.020       7.745       7.376       7.066       6.865       6.692       6.486       6.233    
        6.001       5.788       5.543       5.257       5.047       5.091       5.228       5.317       5.398       5.453    
        5.475       5.457       5.401       5.304       5.160       4.956       4.593       4.026       3.453       3.078    
        2.722       2.217       1.553       1.006      0.7324      0.5478      0.3919      0.2312      9.2015E-02   0.000    
  24    10.00       9.841       9.755       9.664       9.554       9.439       9.346       9.249       9.112       8.820    
        8.499       8.251       8.011       7.645       7.240       7.017       6.847       6.677       6.443       6.205    
        5.999       5.729       5.337       4.794       4.130       4.402       4.808       5.091       5.258       5.345    
        5.387       5.376       5.332       5.225       5.064       4.807       4.347       3.810       3.379       2.989    
        2.552       1.988       1.394      0.9758      0.7339      0.5337      0.3575      0.2505      0.1230       0.000    
  25    10.00       9.859       9.771       9.657       9.541       9.436       9.343       9.254       9.048       8.765    
        8.518       8.267       7.953       7.550       7.250       7.051       6.858       6.654       6.440       6.235    
        5.999       5.740       5.180       4.145       2.303       3.676       4.420       4.863       5.137       5.280    
        5.330       5.324       5.270       5.123       4.903       4.551       4.116       3.694       3.325       2.868    
        2.340       1.801       1.300      0.9672      0.7607      0.5547      0.3768      0.2624      0.1633       0.000    
  26    10.00       9.878       9.792       9.672       9.548       9.452       9.354       9.221       9.018       8.821    
        8.590       8.246       7.862       7.536       7.310       7.115       6.892       6.641       6.434       6.262    
        6.065       5.810       5.327       4.566       3.723       4.079       4.529       4.860       5.115       5.267    
        5.306       5.288       5.197       5.020       4.776       4.440       3.959       3.557       3.211       2.656    
        2.059       1.586       1.287       1.056      0.8203      0.5988      0.4107      0.2850      0.1665       0.000    
  27    10.00       9.903       9.797       9.688       9.582       9.468       9.358       9.224       9.057       8.877    
        8.585       8.199       7.862       7.592       7.402       7.178       6.888       6.626       6.464       6.324    
        6.170       5.934       5.568       5.120       4.665       4.637       4.809       5.021       5.208       5.295    
        5.301       5.266       5.160       4.965       4.679       4.223       3.769       3.437       2.910       2.325    
        1.861       1.557       1.332       1.129      0.8968      0.6536      0.4461      0.3137      0.1979       0.000    
  28    10.00       9.909       9.822       9.724       9.619       9.499       9.377       9.248       9.103       8.892    
        8.551       8.215       7.922       7.658       7.456       7.237       7.000       6.747       6.519       6.374    
        6.251       6.083       5.847       5.522       5.245       5.083       5.119       5.253       5.316       5.336    
        5.312       5.253       5.120       4.871       4.491       4.016       3.624       3.155       2.604       2.189    
        1.858       1.600       1.380       1.169      0.9423      0.7132      0.5062      0.3572      0.2042       0.000    
  29    10.00       9.915       9.830       9.753       9.650       9.542       9.423       9.291       9.131       8.850    
        8.533       8.248       7.970       7.747       7.518       7.286       7.071       6.868       6.650       6.458    
        6.326       6.197       6.042       5.848       5.585       5.457       5.441       5.447       5.448       5.402    
        5.331       5.215       5.053       4.730       4.263       3.842       3.444       2.953       2.512       2.207    
        1.938       1.656       1.406       1.204      0.9995      0.7543      0.5349      0.3733      0.2070       0.000    
  30    10.00       9.927       9.856       9.788       9.697       9.590       9.483       9.333       9.119       8.863    
        8.542       8.234       8.007       7.784       7.567       7.357       7.184       6.997       6.784       6.581    
        6.419       6.310       6.178       6.047       5.905       5.787       5.744       5.651       5.585       5.479    
        5.332       5.132       4.900       4.557       4.188       3.792       3.365       2.905       2.570       2.293    
        1.973       1.690       1.472       1.241      0.9979      0.7807      0.5702      0.3965      0.2228       0.000    
  31    10.00       9.942       9.884       9.819       9.751       9.665       9.544       9.358       9.114       8.844    
        8.537       8.261       8.054       7.837       7.635       7.443       7.270       7.124       6.911       6.707    
        6.559       6.442       6.339       6.237       6.161       6.052       5.934       5.829       5.692       5.524    
        5.288       5.028       4.788       4.506       4.153       3.733       3.299       2.921       2.684       2.420    
        2.065       1.753       1.505       1.271       1.045      0.8214      0.6043      0.4173      0.2161       0.000    
  32    10.00       9.950       9.908       9.852       9.787       9.706       9.577       9.364       9.142       8.888    
        8.571       8.316       8.121       7.898       7.685       7.527       7.377       7.205       7.034       6.834    
        6.681       6.558       6.464       6.376       6.288       6.200       6.062       5.926       5.752       5.520    
        5.246       4.984       4.732       4.461       4.113       3.734       3.393       3.071       2.799       2.497    
        2.168       1.860       1.598       1.329       1.083      0.8934      0.6665      0.4096      0.1829       0.000    
  33    10.00       9.958       9.925       9.877       9.812       9.725       9.557       9.348       9.169       8.941    
        8.653       8.411       8.182       7.932       7.745       7.613       7.482       7.306       7.118       6.947    
        6.777       6.652       6.537       6.439       6.362       6.274       6.129       5.941       5.756       5.532    
        5.256       5.018       4.753       4.417       4.090       3.753       3.477       3.222       2.914       2.580    
        2.296       2.004       1.717       1.438       1.179      0.9676      0.7133      0.4117      0.1790       0.000    
  34    10.00       9.965       9.940       9.900       9.814       9.687       9.533       9.388       9.204       8.979    
        8.734       8.472       8.216       7.973       7.819       7.710       7.571       7.402       7.191       7.026    
        6.874       6.718       6.594       6.497       6.419       6.307       6.139       5.959       5.760       5.499    
        5.256       5.060       4.800       4.474       4.147       3.835       3.573       3.321       3.002       2.699    
        2.445       2.164       1.850       1.572       1.309       1.067      0.7631      0.4633      0.2429       0.000    
  35    10.00       9.971       9.940       9.883       9.778       9.655       9.545       9.419       9.271       9.029    
        8.761       8.501       8.243       8.043       7.905       7.791       7.643       7.465       7.261       7.066    
        6.913       6.767       6.641       6.548       6.462       6.348       6.162       5.948       5.714       5.442    
        5.257       5.054       4.789       4.549       4.275       3.946       3.656       3.443       3.141       2.818    
        2.573       2.285       1.969       1.696       1.423       1.157      0.8747      0.5797      0.2868       0.000    
  36    10.00       9.964       9.916       9.854       9.756       9.642       9.550       9.443       9.283       9.052    
        8.761       8.486       8.303       8.150       8.014       7.869       7.695       7.516       7.301       7.050    
        6.882       6.772       6.661       6.582       6.495       6.352       6.145       5.908       5.622       5.374    
        5.213       5.048       4.818       4.586       4.356       4.062       3.772       3.545       3.276       2.923    
        2.653       2.332       2.018       1.809       1.543       1.248      0.9649      0.6566      0.3213       0.000    
  37    10.00       9.945       9.894       9.832       9.737       9.638       9.534       9.432       9.286       9.017    
        8.716       8.506       8.397       8.251       8.083       7.939       7.727       7.506       7.238       6.984    
        6.868       6.775       6.668       6.584       6.482       6.309       6.098       5.791       5.527       5.362    
        5.220       5.041       4.814       4.631       4.397       4.119       3.892       3.673       3.370       2.983    
        2.629       2.328       2.109       1.893       1.627       1.346       1.063      0.7242      0.3976       0.000    
  38    10.00       9.938       9.872       9.807       9.725       9.630       9.521       9.411       9.244       8.993    
        8.768       8.601       8.462       8.330       8.151       7.920       7.683       7.430       7.131       6.958    
        6.865       6.745       6.637       6.565       6.451       6.254       5.944       5.655       5.514       5.387    
        5.237       5.047       4.842       4.660       4.431       4.177       3.991       3.769       3.382       2.955    
        2.649       2.397       2.180       1.956       1.721       1.436       1.154      0.8375      0.4139       0.000    
  39    10.00       9.921       9.857       9.798       9.719       9.612       9.497       9.383       9.227       9.022    
        8.846       8.718       8.564       8.383       8.129       7.842       7.576       7.282       7.069       6.955    
        6.818       6.679       6.597       6.528       6.417       6.157       5.842       5.665       5.535       5.404    
        5.235       5.055       4.857       4.674       4.501       4.293       4.048       3.779       3.398       3.000    
        2.676       2.416       2.245       2.058       1.793       1.511       1.225      0.8717      0.4084       0.000    
  40    10.00       9.913       9.851       9.792       9.711       9.601       9.489       9.377       9.238       9.067    
        8.923       8.811       8.623       8.346       8.029       7.741       7.460       7.207       7.050       6.911    
        6.754       6.632       6.561       6.476       6.328       6.096       5.882       5.703       5.557       5.421    
        5.256       5.062       4.874       4.722       4.569       4.359       4.076       3.795       3.407       2.981    
        2.678       2.472       2.284       2.123       1.845       1.536       1.274      0.8741      0.4069       0.000    
  41    10.00       9.920       9.849       9.779       9.691       9.605       9.511       9.407       9.270       9.115    
        8.977       8.843       8.604       8.276       7.949       7.680       7.404       7.162       7.009       6.858    
        6.701       6.593       6.516       6.415       6.261       6.086       5.941       5.767       5.585       5.424    
        5.266       5.091       4.911       4.778       4.616       4.406       4.123       3.734       3.290       2.962    
        2.742       2.543       2.348       2.125       1.835       1.539       1.315      0.9312      0.4222       0.000    
  42    10.00       9.921       9.840       9.778       9.714       9.634       9.534       9.416       9.300       9.181    
        9.006       8.778       8.501       8.189       7.885       7.640       7.370       7.133       6.969       6.799    
        6.652       6.557       6.472       6.380       6.240       6.117       5.994       5.798       5.593       5.449    
        5.319       5.127       4.935       4.806       4.655       4.431       4.084       3.625       3.218       2.974    
        2.808       2.630       2.382       2.085       1.807       1.575       1.343      0.9821      0.4846       0.000    
  43    10.00       9.914       9.846       9.793       9.742       9.665       9.567       9.455       9.326       9.144    
        8.920       8.685       8.426       8.101       7.828       7.601       7.359       7.121       6.913       6.755    
        6.622       6.527       6.454       6.378       6.259       6.131       6.006       5.803       5.625       5.518    
        5.360       5.153       4.968       4.835       4.659       4.369       3.967       3.533       3.236       3.049    
        2.872       2.667       2.363       2.058       1.812       1.589       1.389      0.9959      0.4551       0.000    
  44    10.00       9.913       9.855       9.807       9.745       9.688       9.607       9.459       9.268       9.059    
        8.871       8.633       8.320       8.049       7.830       7.570       7.305       7.054       6.848       6.710    
        6.612       6.530       6.456       6.377       6.274       6.144       5.975       5.807       5.686       5.559    
        5.417       5.237       5.024       4.821       4.607       4.282       3.861       3.503       3.274       3.093    
        2.915       2.672       2.378       2.114       1.851       1.612       1.367      0.8992      0.4135       0.000    
  45    10.00       9.923       9.868       9.806       9.746       9.696       9.565       9.389       9.197       9.017    
        8.862       8.545       8.220       8.023       7.788       7.500       7.212       6.980       6.813       6.703    
        6.628       6.550       6.469       6.376       6.261       6.134       5.992       5.862       5.756       5.624    
        5.459       5.272       5.053       4.797       4.541       4.191       3.796       3.514       3.340       3.153    
        2.916       2.638       2.386       2.146       1.913       1.674       1.276      0.7991      0.4021       0.000    
  46    10.00       9.938       9.879       9.806       9.738       9.640       9.497       9.364       9.203       9.010    
        8.754       8.453       8.192       7.942       7.692       7.413       7.146       6.974       6.837       6.731    
        6.655       6.580       6.477       6.360       6.250       6.142       6.030       5.911       5.804       5.687    
        5.539       5.342       5.093       4.790       4.424       4.061       3.768       3.569       3.387       3.192    
        2.911       2.616       2.364       2.174       1.951       1.641       1.188      0.7633      0.3763       0.000    
  47    10.00       9.949       9.894       9.821       9.705       9.576       9.454       9.350       9.202       8.948    
        8.641       8.364       8.138       7.928       7.663       7.360       7.124       6.961       6.852       6.763    
        6.681       6.593       6.485       6.362       6.254       6.169       6.076       5.959       5.836       5.721    
        5.592       5.427       5.097       4.672       4.315       4.053       3.808       3.637       3.475       3.206    
        2.864       2.551       2.323       2.192       1.945       1.565       1.124      0.7363      0.3720       0.000    
  48    10.00       9.955       9.898       9.790       9.670       9.559       9.436       9.330       9.181       8.894    
        8.560       8.328       8.143       7.886       7.577       7.304       7.126       6.962       6.853       6.784    
        6.701       6.595       6.479       6.366       6.278       6.210       6.127       5.997       5.854       5.731    
        5.595       5.396       5.053       4.700       4.381       4.093       3.874       3.698       3.492       3.150    
        2.782       2.541       2.360       2.127       1.804       1.467       1.088      0.7416      0.3926       0.000    
  49    10.00       9.952       9.866       9.762       9.672       9.552       9.433       9.321       9.133       8.829    
        8.530       8.309       8.077       7.817       7.584       7.329       7.083       6.930       6.864       6.799    
        6.720       6.599       6.463       6.366       6.298       6.248       6.152       6.002       5.852       5.741    
        5.594       5.332       5.029       4.779       4.512       4.194       3.912       3.694       3.452       3.085    
        2.789       2.577       2.327       1.992       1.705       1.401       1.070      0.7538      0.3839       0.000    
  50    10.00       9.940       9.845       9.750       9.677       9.566       9.433       9.291       9.088       8.848    
        8.545       8.248       8.007       7.800       7.613       7.327       7.046       6.931       6.872       6.809    
        6.734       6.597       6.452       6.364       6.310       6.264       6.157       5.996       5.853       5.738    
        5.578       5.304       5.070       4.856       4.567       4.251       3.964       3.676       3.327       3.002    
        2.845       2.623       2.258       1.921       1.680       1.390       1.103      0.7363      0.3024       0.000    

 HEAD WILL BE SAVED ON UNIT   51 AT END OF TIME STEP  57, STRESS PERIOD    2

 DRAWDOWN WILL BE SAVED ON UNIT   52 AT END OF TIME STEP  57, STRESS PERIOD    2
1
  VOLUMETRIC BUDGET FOR ENTIRE MODEL AT END OF TIME STEP 57 IN STRESS PERIOD   2
  ------------------------------------------------------------------------------

     CUMULATIVE VOLUMES      L**3       RATES FOR THIS TIME STEP      L**3/T
     ------------------                 ------------------------

           IN:                                      IN:
           ---                                      ---
             STORAGE =       27609.3945               STORAGE =         446.7637
       CONSTANT HEAD =       32178.2695         CONSTANT HEAD =         590.8164
               WELLS =           0.0000                 WELLS =           0.0000

            TOTAL IN =       59787.6641              TOTAL IN =        1037.5801

          OUT:                                     OUT:
          ----                                     ----
             STORAGE =       9.3745E-03               STORAGE =           0.0000
       CONSTANT HEAD =       31287.6445         CONSTANT HEAD =         537.5801
               WELLS =       28500.0000                 WELLS =         500.0000

           TOTAL OUT =       59787.6523             TOTAL OUT =        1037.5801

            IN - OUT =       1.1719E-02              IN - OUT =           0.0000

 PERCENT DISCREPANCY =           0.00     PERCENT DISCREPANCY =           0.00






          TIME SUMMARY AT END OF TIME STEP  57 IN STRESS PERIOD    2
                    SECONDS     MINUTES      HOURS       DAYS        YEARS
                    -----------------------------------------------------------
   TIME STEP LENGTH  86400.      1440.0      24.000      1.0000     2.73785E-03
 STRESS PERIOD TIME 4.92480E+06  82080.      1368.0      57.000     0.15606    
         TOTAL TIME 5.01120E+06  83520.      1392.0      58.000     0.15880    
1
 
 SOLVING FOR HEAD 

 OUTPUT CONTROL FOR STRESS PERIOD    2   TIME STEP  58
    SAVE HEAD FOR ALL LAYERS
    SAVE DRAWDOWN FOR ALL LAYERS
    SAVE BUDGET
    PRINT HEAD FOR ALL LAYERS
    PRINT BUDGET
 UBDSV1 SAVING "         STORAGE" ON UNIT  53 AT TIME STEP 58, STRESS PERIOD   2
 UBDSV2 SAVING "   CONSTANT HEAD" ON UNIT  53 AT TIME STEP 58, STRESS PERIOD   2
 UBDSV1 SAVING "FLOW RIGHT FACE " ON UNIT  53 AT TIME STEP 58, STRESS PERIOD   2
 UBDSV1 SAVING "FLOW FRONT FACE " ON UNIT  53 AT TIME STEP 58, STRESS PERIOD   2
1
              HEAD IN LAYER   1 AT END OF TIME STEP  58 IN STRESS PERIOD    2
  ---------------------------------------------------------------------------

            1           2           3           4           5           6           7           8           9          10
           11          12          13          14          15          16          17          18          19          20
           21          22          23          24          25          26          27          28          29          30
           31          32          33          34          35          36          37          38          39          40
           41          42          43          44          45          46          47          48          49          50
 ........................................................................................................................
   1    10.00       9.956       9.895       9.834       9.784       9.722       9.662       9.599       9.514       9.444    
        9.403       9.362       9.316       9.271       9.199       9.119       9.032       8.964       8.934       8.900    
        8.858       8.823       8.787       8.741       8.677       8.567       8.434       8.305       8.157       8.009    
        7.800       7.467       7.074       6.661       6.198       5.769       5.407       5.070       4.609       4.109    
        3.684       3.264       2.684       2.134       1.749       1.363       1.040      0.8307      0.5509       0.000    
   2    10.00       9.955       9.901       9.840       9.786       9.730       9.662       9.579       9.498       9.444    
        9.407       9.370       9.335       9.279       9.195       9.113       9.034       8.967       8.934       8.896    
        8.854       8.826       8.797       8.749       8.676       8.571       8.436       8.302       8.163       8.016    
        7.789       7.446       7.033       6.565       6.098       5.685       5.360       5.030       4.563       4.094    
        3.665       3.160       2.636       2.201       1.819       1.460       1.090      0.7889      0.4212       0.000    
   3    10.00       9.951       9.899       9.843       9.789       9.723       9.640       9.561       9.509       9.460    
        9.417       9.385       9.351       9.297       9.214       9.111       9.027       8.973       8.931       8.893    
        8.858       8.828       8.799       8.738       8.660       8.553       8.426       8.324       8.177       8.003    
        7.711       7.311       6.871       6.417       5.987       5.604       5.314       4.973       4.468       4.011    
        3.654       3.195       2.714       2.296       1.900       1.537       1.100      0.6768      0.2977       0.000    
   4    10.00       9.955       9.902       9.841       9.774       9.698       9.618       9.560       9.515       9.469    
        9.432       9.405       9.367       9.309       9.233       9.120       9.027       8.976       8.932       8.895    
        8.855       8.820       8.784       8.719       8.639       8.535       8.411       8.297       8.182       7.964    
        7.585       7.095       6.624       6.277       5.957       5.586       5.215       4.782       4.355       4.023    
        3.706       3.300       2.819       2.408       1.992       1.553       1.049      0.6010      0.2799       0.000    
   5    10.00       9.951       9.895       9.826       9.756       9.686       9.617       9.567       9.521       9.481    
        9.449       9.420       9.375       9.308       9.218       9.116       9.036       8.980       8.935       8.884    
        8.837       8.802       8.755       8.689       8.614       8.494       8.371       8.273       8.158       7.878    
        7.379       6.840       6.451       6.187       5.899       5.525       5.102       4.675       4.374       4.093    
        3.807       3.389       2.889       2.530       2.107       1.533      0.9548      0.5546      0.2790       0.000    
   6    10.00       9.940       9.873       9.819       9.753       9.680       9.622       9.577       9.529       9.493    
        9.463       9.427       9.370       9.291       9.215       9.130       9.043       8.974       8.915       8.857    
        8.816       8.777       8.734       8.664       8.553       8.439       8.347       8.240       8.047       7.642    
        7.087       6.598       6.301       6.104       5.871       5.461       5.002       4.665       4.444       4.200    
        3.924       3.546       3.050       2.604       2.081       1.466      0.8562      0.4878      0.2725       0.000    
   7    10.00       9.922       9.860       9.807       9.744       9.692       9.636       9.589       9.549       9.510    
        9.471       9.420       9.350       9.274       9.204       9.134       9.038       8.944       8.881       8.834    
        8.793       8.751       8.707       8.612       8.498       8.407       8.306       8.133       7.805       7.290    
        6.764       6.384       6.201       6.050       5.753       5.347       5.045       4.754       4.516       4.348    
        4.069       3.680       3.150       2.572       1.928       1.222      0.7177      0.4953      0.2508       0.000    
   8    10.00       9.918       9.859       9.803       9.747       9.700       9.652       9.607       9.568       9.531    
        9.474       9.400       9.326       9.259       9.194       9.107       8.993       8.904       8.856       8.811    
        8.763       8.728       8.654       8.552       8.451       8.343       8.151       7.877       7.426       6.981    
        6.592       6.294       6.156       5.971       5.636       5.324       5.075       4.862       4.673       4.475    
        4.187       3.708       3.095       2.436       1.702       1.103      0.7595      0.4859      0.2239       0.000    
   9    10.00       9.921       9.856       9.800       9.760       9.721       9.674       9.630       9.585       9.542    
        9.470       9.379       9.303       9.235       9.156       9.059       8.955       8.877       8.827       8.780    
        8.737       8.679       8.576       8.481       8.377       8.225       7.946       7.533       7.088       6.770    
        6.464       6.249       6.096       5.849       5.541       5.301       5.125       4.964       4.803       4.588    
        4.232       3.732       3.081       2.346       1.669       1.142      0.7749      0.4820      0.2390       0.000    
  10    10.00       9.920       9.854       9.808       9.772       9.734       9.693       9.654       9.602       9.534    
        9.446       9.354       9.280       9.205       9.122       9.009       8.906       8.843       8.799       8.751    
        8.707       8.612       8.501       8.397       8.251       8.021       7.604       7.158       6.810       6.571    
        6.390       6.215       6.009       5.756       5.497       5.317       5.187       5.055       4.875       4.625    
        4.243       3.696       3.000       2.343       1.808       1.308      0.8299      0.5119      0.2698       0.000    
  11    10.00       9.909       9.858       9.820       9.784       9.750       9.714       9.662       9.589       9.512    
        9.424       9.334       9.262       9.163       9.049       8.950       8.876       8.817       8.773       8.720    
        8.640       8.517       8.357       8.202       7.946       7.605       7.236       6.942       6.663       6.493    
        6.341       6.111       5.878       5.692       5.521       5.391       5.262       5.092       4.879       4.587    
        4.228       3.745       3.041       2.441       1.967       1.487      0.9566      0.5073      0.2037       0.000    
  12    10.00       9.917       9.867       9.826       9.796       9.761       9.721       9.650       9.563       9.484    
        9.401       9.311       9.214       9.094       9.000       8.915       8.838       8.789       8.732       8.651    
        8.493       8.282       8.059       7.827       7.510       7.249       7.057       6.755       6.527       6.394    
        6.233       6.019       5.836       5.681       5.571       5.453       5.300       5.108       4.854       4.548    
        4.194       3.722       3.077       2.542       2.112       1.594       1.007      0.4802      0.1597       0.000    
  13    10.00       9.935       9.889       9.845       9.806       9.766       9.706       9.619       9.529       9.451    
        9.363       9.273       9.171       9.047       8.939       8.854       8.799       8.736       8.655       8.463    
        8.174       7.919       7.677       7.387       7.140       7.024       6.787       6.513       6.398       6.288    
        6.117       5.934       5.804       5.699       5.610       5.502       5.327       5.088       4.839       4.523    
        4.171       3.691       3.025       2.525       2.127       1.560      0.9379      0.4344      0.1255       0.000    
  14    10.00       9.953       9.910       9.864       9.818       9.756       9.670       9.578       9.497       9.408    
        9.320       9.237       9.116       8.977       8.879       8.811       8.720       8.623       8.431       8.093    
        7.785       7.557       7.239       7.003       6.892       6.762       6.518       6.361       6.245       6.139    
        5.996       5.885       5.809       5.725       5.632       5.522       5.326       5.064       4.797       4.476    
        4.099       3.518       2.891       2.487       1.999       1.455      0.9249      0.3968      0.1021       0.000    
  15    10.00       9.963       9.920       9.873       9.820       9.727       9.621       9.540       9.460       9.374    
        9.307       9.210       9.050       8.898       8.808       8.688       8.566       8.442       8.119       7.722    
        7.468       7.145       6.856       6.767       6.701       6.530       6.334       6.181       6.099       6.022    
        5.937       5.875       5.817       5.747       5.650       5.515       5.288       4.991       4.711       4.414    
        4.005       3.440       2.898       2.354       1.764       1.277      0.7952      0.3496      0.1049       0.000    
  16    10.00       9.972       9.931       9.876       9.791       9.678       9.586       9.521       9.448       9.360    
        9.270       9.130       8.945       8.800       8.668       8.526       8.443       8.191       7.722       7.357    
        7.101       6.784       6.677       6.624       6.498       6.283       6.126       6.055       6.031       5.981    
        5.919       5.870       5.823       5.750       5.632       5.464       5.192       4.922       4.701       4.382    
        3.917       3.308       2.684       2.079       1.577       1.095      0.6776      0.3318      0.1119       0.000    
  17    10.00       9.972       9.928       9.856       9.752       9.638       9.561       9.501       9.420       9.321    
        9.171       8.993       8.826       8.667       8.504       8.367       8.161       7.740       7.302       7.049    
        6.798       6.605       6.521       6.399       6.202       6.042       6.002       5.996       5.982       5.939    
        5.892       5.855       5.813       5.744       5.577       5.346       5.112       4.922       4.711       4.310    
        3.688       3.066       2.470       1.876       1.349      0.8859      0.5679      0.2967      0.1219       0.000    
  18    10.00       9.966       9.914       9.828       9.698       9.606       9.545       9.464       9.370       9.233    
        9.051       8.892       8.724       8.509       8.295       8.068       7.767       7.339       7.012       6.791    
        6.587       6.425       6.297       6.123       5.989       5.949       5.939       5.937       5.916       5.886    
        5.860       5.832       5.784       5.667       5.492       5.296       5.099       4.930       4.635       4.097    
        3.461       2.797       2.159       1.672       1.252      0.8305      0.4877      0.2454      0.1176       0.000    
  19    10.00       9.958       9.901       9.775       9.646       9.592       9.524       9.423       9.308       9.160    
        8.994       8.844       8.600       8.274       8.019       7.785       7.421       7.032       6.812       6.642    
        6.432       6.235       6.094       5.961       5.896       5.882       5.878       5.861       5.834       5.825    
        5.813       5.791       5.721       5.607       5.461       5.271       5.093       4.848       4.343       3.783    
        3.268       2.582       1.975       1.587       1.170      0.7494      0.4404      0.2499      0.1280       0.000    
  20    10.00       9.949       9.853       9.724       9.630       9.571       9.498       9.390       9.262       9.127    
        8.956       8.728       8.363       8.038       7.812       7.522       7.161       6.948       6.748       6.512    
        6.281       6.105       5.959       5.865       5.817       5.794       5.766       5.759       5.746       5.753    
        5.753       5.734       5.661       5.556       5.406       5.242       5.019       4.572       4.024       3.575    
        3.016       2.382       1.928       1.553       1.132      0.6651      0.3847      0.2601      0.1340       0.000    
  21    10.00       9.915       9.813       9.705       9.612       9.551       9.472       9.345       9.217       9.090    
        8.861       8.512       8.140       7.895       7.641       7.336       7.068       6.867       6.625       6.377    
        6.155       5.983       5.855       5.756       5.690       5.641       5.625       5.634       5.638       5.655    
        5.673       5.646       5.573       5.474       5.323       5.143       4.794       4.322       3.887       3.341    
        2.810       2.310       1.926       1.546      0.9535      0.5386      0.3894      0.2938      0.1409       0.000    
  22    10.00       9.893       9.771       9.674       9.600       9.526       9.415       9.297       9.184       9.007    
        8.714       8.319       8.023       7.802       7.517       7.205       6.948       6.735       6.514       6.279    
        6.059       5.877       5.706       5.553       5.467       5.448       5.466       5.481       5.519       5.544    
        5.566       5.535       5.475       5.372       5.221       5.041       4.684       4.228       3.659       3.131    
        2.745       2.346       1.883       1.247      0.7439      0.5369      0.4082      0.2718      0.1005       0.000    
  23    10.00       9.862       9.742       9.666       9.588       9.478       9.356       9.268       9.125       8.903    
        8.560       8.222       8.009       7.733       7.363       7.053       6.851       6.678       6.471       6.218    
        5.986       5.773       5.528       5.241       5.032       5.076       5.212       5.301       5.382       5.437    
        5.459       5.442       5.386       5.290       5.148       4.945       4.584       4.020       3.448       3.075    
        2.720       2.216       1.552       1.006      0.7321      0.5476      0.3917      0.2311      9.1980E-02   0.000    
  24    10.00       9.840       9.754       9.663       9.551       9.436       9.343       9.245       9.107       8.813    
        8.491       8.241       8.001       7.633       7.227       7.004       6.833       6.663       6.429       6.190    
        5.984       5.714       5.321       4.778       4.114       4.386       4.791       5.074       5.242       5.329    
        5.371       5.361       5.317       5.211       5.052       4.796       4.339       3.804       3.375       2.986    
        2.549       1.987       1.393      0.9753      0.7336      0.5335      0.3574      0.2504      0.1229       0.000    
  25    10.00       9.858       9.770       9.655       9.539       9.433       9.339       9.250       9.043       8.758    
        8.509       8.257       7.942       7.538       7.237       7.037       6.844       6.640       6.426       6.221    
        5.983       5.725       5.165       4.129       2.286       3.659       4.403       4.847       5.121       5.263    
        5.314       5.309       5.256       5.109       4.891       4.541       4.109       3.688       3.320       2.865    
        2.338       1.800       1.299      0.9668      0.7604      0.5545      0.3766      0.2623      0.1633       0.000    
  26    10.00       9.877       9.791       9.670       9.545       9.449       9.350       9.217       9.012       8.814    
        8.582       8.236       7.852       7.524       7.297       7.102       6.878       6.626       6.419       6.248    
        6.051       5.795       5.311       4.550       3.707       4.062       4.512       4.844       5.098       5.250    
        5.290       5.272       5.183       5.007       4.764       4.430       3.952       3.552       3.207       2.654    
        2.057       1.585       1.287       1.056      0.8200      0.5986      0.4106      0.2850      0.1665       0.000    
  27    10.00       9.902       9.795       9.687       9.579       9.465       9.354       9.220       9.051       8.870    
        8.577       8.189       7.852       7.580       7.389       7.165       6.874       6.612       6.450       6.309    
        6.155       5.919       5.553       5.104       4.649       4.620       4.792       5.005       5.191       5.278    
        5.285       5.251       5.146       4.952       4.668       4.214       3.763       3.432       2.906       2.323    
        1.860       1.557       1.331       1.129      0.8964      0.6533      0.4460      0.3136      0.1979       0.000    
  28    10.00       9.909       9.821       9.722       9.617       9.496       9.373       9.244       9.098       8.886    
        8.544       8.206       7.912       7.646       7.444       7.224       6.987       6.734       6.505       6.359    
        6.236       6.068       5.832       5.507       5.229       5.066       5.102       5.236       5.300       5.320    
        5.296       5.238       5.106       4.859       4.481       4.009       3.619       3.151       2.602       2.188    
        1.857       1.600       1.379       1.168      0.9419      0.7129      0.5060      0.3571      0.2041       0.000    
  29    10.00       9.915       9.829       9.751       9.648       9.540       9.420       9.287       9.127       8.844    
        8.525       8.239       7.960       7.737       7.506       7.273       7.058       6.855       6.636       6.444    
        6.312       6.183       6.027       5.833       5.570       5.440       5.425       5.431       5.432       5.387    
        5.316       5.201       5.041       4.720       4.255       3.836       3.439       2.950       2.510       2.206    
        1.937       1.655       1.405       1.203      0.9991      0.7541      0.5347      0.3732      0.2070       0.000    
  30    10.00       9.926       9.855       9.787       9.695       9.588       9.480       9.329       9.114       8.857    
        8.535       8.225       7.997       7.774       7.556       7.346       7.172       6.984       6.771       6.567    
        6.405       6.296       6.163       6.032       5.889       5.771       5.729       5.636       5.570       5.464    
        5.318       5.120       4.890       4.549       4.182       3.787       3.361       2.902       2.568       2.291    
        1.972       1.689       1.471       1.241      0.9976      0.7805      0.5700      0.3964      0.2228       0.000    
  31    10.00       9.941       9.883       9.818       9.750       9.663       9.541       9.354       9.109       8.838    
        8.529       8.252       8.045       7.827       7.625       7.431       7.258       7.112       6.898       6.694    
        6.545       6.429       6.325       6.223       6.147       6.038       5.920       5.814       5.678       5.511    
        5.276       5.019       4.780       4.500       4.148       3.729       3.296       2.919       2.682       2.419    
        2.064       1.753       1.504       1.270       1.044      0.8212      0.6042      0.4172      0.2160       0.000    
  32    10.00       9.949       9.908       9.851       9.786       9.704       9.575       9.361       9.138       8.882    
        8.564       8.308       8.112       7.888       7.674       7.517       7.366       7.193       7.022       6.822    
        6.668       6.545       6.451       6.363       6.275       6.187       6.049       5.912       5.740       5.509    
        5.236       4.976       4.725       4.455       4.108       3.730       3.391       3.069       2.797       2.495    
        2.168       1.860       1.598       1.328       1.082      0.8932      0.6664      0.4095      0.1829       0.000    
  33    10.00       9.957       9.924       9.877       9.811       9.723       9.555       9.345       9.165       8.936    
        8.646       8.404       8.173       7.923       7.735       7.602       7.472       7.295       7.106       6.935    
        6.765       6.639       6.524       6.427       6.349       6.261       6.116       5.929       5.746       5.523    
        5.248       5.011       4.747       4.412       4.087       3.750       3.474       3.220       2.913       2.579    
        2.296       2.004       1.716       1.438       1.179      0.9675      0.7132      0.4116      0.1789       0.000    
  34    10.00       9.965       9.940       9.899       9.814       9.686       9.531       9.385       9.200       8.974    
        8.728       8.465       8.208       7.964       7.810       7.701       7.561       7.392       7.180       7.015    
        6.863       6.706       6.582       6.485       6.407       6.296       6.128       5.949       5.750       5.491    
        5.249       5.054       4.795       4.470       4.144       3.833       3.571       3.319       3.001       2.699    
        2.445       2.164       1.850       1.572       1.309       1.066      0.7630      0.4632      0.2429       0.000    
  35    10.00       9.971       9.940       9.883       9.777       9.653       9.543       9.417       9.268       9.025    
        8.756       8.495       8.236       8.035       7.897       7.782       7.633       7.455       7.251       7.056    
        6.903       6.757       6.631       6.538       6.451       6.338       6.153       5.939       5.706       5.436    
        5.252       5.049       4.785       4.546       4.273       3.945       3.654       3.442       3.140       2.817    
        2.572       2.284       1.969       1.696       1.422       1.157      0.8746      0.5797      0.2868       0.000    
  36    10.00       9.964       9.915       9.853       9.755       9.640       9.548       9.441       9.281       9.048    
        8.756       8.481       8.297       8.143       8.007       7.861       7.686       7.507       7.292       7.041    
        6.874       6.763       6.652       6.574       6.486       6.343       6.137       5.901       5.616       5.369    
        5.210       5.044       4.815       4.584       4.354       4.061       3.771       3.544       3.275       2.922    
        2.653       2.332       2.017       1.809       1.543       1.247      0.9648      0.6566      0.3212       0.000    
  37    10.00       9.945       9.894       9.831       9.736       9.636       9.532       9.430       9.284       9.014    
        8.712       8.500       8.392       8.244       8.076       7.932       7.720       7.498       7.230       6.976    
        6.861       6.768       6.661       6.576       6.474       6.302       6.091       5.786       5.523       5.358    
        5.217       5.038       4.812       4.629       4.395       4.117       3.890       3.672       3.369       2.982    
        2.629       2.328       2.109       1.892       1.626       1.346       1.063      0.7241      0.3976       0.000    
  38    10.00       9.938       9.872       9.807       9.724       9.629       9.519       9.409       9.242       8.990    
        8.764       8.596       8.457       8.324       8.144       7.913       7.676       7.423       7.125       6.952    
        6.859       6.738       6.631       6.559       6.444       6.248       5.940       5.652       5.511       5.384    
        5.235       5.045       4.840       4.658       4.429       4.176       3.990       3.768       3.381       2.955    
        2.648       2.397       2.180       1.956       1.720       1.436       1.154      0.8374      0.4138       0.000    
  39    10.00       9.921       9.856       9.798       9.718       9.611       9.495       9.382       9.225       9.019    
        8.843       8.714       8.559       8.378       8.123       7.836       7.571       7.276       7.063       6.949    
        6.813       6.674       6.592       6.523       6.412       6.152       5.839       5.662       5.532       5.401    
        5.233       5.053       4.855       4.673       4.499       4.291       4.047       3.778       3.397       3.000    
        2.676       2.416       2.245       2.058       1.793       1.511       1.225      0.8716      0.4084       0.000    
  40    10.00       9.912       9.851       9.792       9.710       9.600       9.487       9.375       9.236       9.065    
        8.920       8.807       8.620       8.342       8.024       7.737       7.456       7.203       7.046       6.907    
        6.749       6.628       6.557       6.472       6.324       6.093       5.879       5.701       5.555       5.418    
        5.254       5.060       4.873       4.721       4.568       4.357       4.075       3.794       3.407       2.980    
        2.677       2.472       2.283       2.123       1.844       1.536       1.274      0.8740      0.4069       0.000    
  41    10.00       9.920       9.849       9.778       9.691       9.604       9.510       9.406       9.269       9.113    
        8.975       8.840       8.601       8.273       7.946       7.677       7.400       7.158       7.005       6.854    
        6.697       6.590       6.512       6.412       6.258       6.083       5.939       5.765       5.582       5.422    
        5.265       5.089       4.910       4.777       4.615       4.405       4.122       3.733       3.290       2.961    
        2.741       2.542       2.347       2.125       1.834       1.539       1.315      0.9311      0.4222       0.000    
  42    10.00       9.920       9.840       9.777       9.713       9.633       9.533       9.415       9.298       9.179    
        9.004       8.775       8.498       8.186       7.882       7.637       7.366       7.130       6.965       6.796    
        6.649       6.554       6.469       6.377       6.237       6.115       5.992       5.796       5.591       5.447    
        5.317       5.125       4.933       4.804       4.654       4.430       4.083       3.624       3.218       2.973    
        2.807       2.630       2.381       2.085       1.807       1.575       1.343      0.9820      0.4845       0.000    
  43    10.00       9.914       9.846       9.792       9.741       9.664       9.566       9.454       9.325       9.142    
        8.918       8.683       8.424       8.099       7.826       7.598       7.356       7.118       6.910       6.752    
        6.619       6.524       6.451       6.376       6.256       6.129       6.004       5.802       5.623       5.517    
        5.359       5.152       4.966       4.833       4.658       4.368       3.966       3.532       3.235       3.048    
        2.872       2.667       2.363       2.058       1.812       1.589       1.389      0.9958      0.4551       0.000    
  44    10.00       9.913       9.854       9.806       9.745       9.688       9.606       9.458       9.267       9.058    
        8.870       8.632       8.319       8.047       7.828       7.568       7.303       7.052       6.846       6.707    
        6.610       6.528       6.453       6.375       6.272       6.141       5.973       5.805       5.685       5.558    
        5.416       5.235       5.023       4.820       4.606       4.281       3.860       3.503       3.273       3.092    
        2.914       2.672       2.378       2.114       1.851       1.612       1.367      0.8991      0.4135       0.000    
  45    10.00       9.923       9.868       9.805       9.746       9.696       9.564       9.389       9.196       9.016    
        8.861       8.544       8.219       8.021       7.787       7.498       7.210       6.978       6.811       6.701    
        6.626       6.548       6.466       6.373       6.259       6.132       5.990       5.860       5.754       5.622    
        5.457       5.271       5.052       4.796       4.540       4.191       3.795       3.514       3.339       3.153    
        2.915       2.638       2.385       2.145       1.912       1.674       1.276      0.7990      0.4021       0.000    
  46    10.00       9.938       9.879       9.806       9.738       9.640       9.497       9.364       9.202       9.009    
        8.753       8.452       8.191       7.940       7.691       7.411       7.144       6.973       6.835       6.729    
        6.653       6.578       6.475       6.358       6.248       6.140       6.028       5.909       5.802       5.686    
        5.537       5.340       5.092       4.788       4.423       4.060       3.767       3.568       3.386       3.192    
        2.911       2.615       2.364       2.174       1.951       1.640       1.188      0.7632      0.3762       0.000    
  47    10.00       9.949       9.894       9.821       9.705       9.576       9.453       9.349       9.201       8.947    
        8.640       8.363       8.137       7.927       7.662       7.358       7.122       6.960       6.850       6.761    
        6.679       6.591       6.483       6.360       6.253       6.168       6.074       5.957       5.834       5.720    
        5.590       5.425       5.095       4.671       4.314       4.052       3.807       3.636       3.475       3.206    
        2.864       2.550       2.323       2.192       1.945       1.565       1.124      0.7362      0.3720       0.000    
  48    10.00       9.954       9.897       9.790       9.670       9.558       9.436       9.330       9.180       8.893    
        8.559       8.327       8.141       7.885       7.576       7.302       7.124       6.961       6.851       6.782    
        6.699       6.593       6.477       6.365       6.276       6.208       6.125       5.995       5.852       5.729    
        5.594       5.395       5.051       4.699       4.380       4.092       3.873       3.698       3.492       3.150    
        2.782       2.541       2.360       2.127       1.803       1.467       1.088      0.7415      0.3926       0.000    
  49    10.00       9.952       9.866       9.762       9.672       9.552       9.432       9.321       9.132       8.828    
        8.529       8.308       8.076       7.816       7.583       7.328       7.081       6.929       6.862       6.797    
        6.718       6.597       6.461       6.364       6.296       6.246       6.150       6.001       5.851       5.739    
        5.592       5.331       5.028       4.778       4.511       4.193       3.911       3.694       3.451       3.085    
        2.788       2.577       2.327       1.991       1.705       1.401       1.070      0.7538      0.3839       0.000    
  50    10.00       9.940       9.845       9.750       9.677       9.565       9.433       9.291       9.087       8.847    
        8.544       8.247       8.006       7.799       7.611       7.325       7.044       6.929       6.870       6.807    
        6.732       6.595       6.450       6.362       6.308       6.262       6.155       5.994       5.851       5.737    
        5.577       5.302       5.069       4.855       4.566       4.250       3.964       3.675       3.326       3.002    
        2.845       2.622       2.257       1.920       1.680       1.390       1.103      0.7362      0.3024       0.000    

 HEAD WILL BE SAVED ON UNIT   51 AT END OF TIME STEP  58, STRESS PERIOD    2

 DRAWDOWN WILL BE SAVED ON UNIT   52 AT END OF TIME STEP  58, STRESS PERIOD    2
1
  VOLUMETRIC BUDGET FOR ENTIRE MODEL AT END OF TIME STEP 58 IN STRESS PERIOD   2
  ------------------------------------------------------------------------------

     CUMULATIVE VOLUMES      L**3       RATES FOR THIS TIME STEP      L**3/T
     ------------------                 ------------------------

           IN:                                      IN:
           ---                                      ---
             STORAGE =       28054.2168               STORAGE =         444.8227
       CONSTANT HEAD =       32770.8672         CONSTANT HEAD =         592.5970
               WELLS =           0.0000                 WELLS =           0.0000

            TOTAL IN =       60825.0859              TOTAL IN =        1037.4197

          OUT:                                     OUT:
          ----                                     ----
             STORAGE =       9.3745E-03               STORAGE =           0.0000
       CONSTANT HEAD =       31825.0645         CONSTANT HEAD =         537.4193
               WELLS =       29000.0000                 WELLS =         500.0000

           TOTAL OUT =       60825.0742             TOTAL OUT =        1037.4193

            IN - OUT =       1.1719E-02              IN - OUT =       3.6621E-04

 PERCENT DISCREPANCY =           0.00     PERCENT DISCREPANCY =           0.00






          TIME SUMMARY AT END OF TIME STEP  58 IN STRESS PERIOD    2
                    SECONDS     MINUTES      HOURS       DAYS        YEARS
                    -----------------------------------------------------------
   TIME STEP LENGTH  86400.      1440.0      24.000      1.0000     2.73785E-03
 STRESS PERIOD TIME 5.01120E+06  83520.      1392.0      58.000     0.15880    
         TOTAL TIME 5.09760E+06  84960.      1416.0      59.000     0.16153    
1
 
 SOLVING FOR HEAD 

 OUTPUT CONTROL FOR STRESS PERIOD    2   TIME STEP  59
    SAVE HEAD FOR ALL LAYERS
    SAVE DRAWDOWN FOR ALL LAYERS
    SAVE BUDGET
    PRINT HEAD FOR ALL LAYERS
    PRINT BUDGET
 UBDSV1 SAVING "         STORAGE" ON UNIT  53 AT TIME STEP 59, STRESS PERIOD   2
 UBDSV2 SAVING "   CONSTANT HEAD" ON UNIT  53 AT TIME STEP 59, STRESS PERIOD   2
 UBDSV1 SAVING "FLOW RIGHT FACE " ON UNIT  53 AT TIME STEP 59, STRESS PERIOD   2
 UBDSV1 SAVING "FLOW FRONT FACE " ON UNIT  53 AT TIME STEP 59, STRESS PERIOD   2
1
              HEAD IN LAYER   1 AT END OF TIME STEP  59 IN STRESS PERIOD    2
  ---------------------------------------------------------------------------

            1           2           3           4           5           6           7           8           9          10
           11          12          13          14          15          16          17          18          19          20
           21          22          23          24          25          26          27          28          29          30
           31          32          33          34          35          36          37          38          39          40
           41          42          43          44          45          46          47          48          49          50
 ........................................................................................................................
   1    10.00       9.955       9.894       9.834       9.783       9.722       9.661       9.598       9.512       9.442    
        9.401       9.360       9.314       9.269       9.196       9.116       9.029       8.961       8.930       8.897    
        8.855       8.820       8.783       8.737       8.674       8.563       8.430       8.301       8.153       8.005    
        7.796       7.463       7.071       6.658       6.194       5.766       5.404       5.067       4.607       4.107    
        3.682       3.262       2.683       2.133       1.748       1.362       1.039      0.8302      0.5506       0.000    
   2    10.00       9.955       9.900       9.840       9.786       9.729       9.661       9.578       9.496       9.442    
        9.405       9.368       9.333       9.277       9.193       9.110       9.031       8.964       8.931       8.893    
        8.850       8.823       8.794       8.745       8.672       8.567       8.433       8.298       8.159       8.012    
        7.785       7.442       7.029       6.562       6.095       5.682       5.357       5.027       4.561       4.092    
        3.663       3.158       2.635       2.200       1.818       1.459       1.090      0.7884      0.4210       0.000    
   3    10.00       9.951       9.898       9.843       9.788       9.722       9.639       9.559       9.507       9.458    
        9.415       9.383       9.348       9.295       9.211       9.109       9.024       8.969       8.928       8.890    
        8.854       8.825       8.796       8.735       8.656       8.549       8.422       8.320       8.173       7.999    
        7.707       7.307       6.867       6.413       5.983       5.600       5.311       4.970       4.465       4.009    
        3.652       3.193       2.712       2.295       1.898       1.536       1.100      0.6764      0.2975       0.000    
   4    10.00       9.955       9.901       9.840       9.773       9.697       9.617       9.558       9.514       9.468    
        9.431       9.403       9.365       9.307       9.230       9.118       9.024       8.973       8.928       8.892    
        8.852       8.817       8.780       8.715       8.635       8.531       8.407       8.293       8.178       7.960    
        7.581       7.091       6.620       6.272       5.953       5.583       5.211       4.779       4.352       4.020    
        3.703       3.298       2.817       2.406       1.990       1.552       1.049      0.6006      0.2798       0.000    
   5    10.00       9.951       9.895       9.825       9.755       9.685       9.615       9.565       9.519       9.479    
        9.447       9.418       9.373       9.306       9.216       9.113       9.033       8.977       8.931       8.881    
        8.834       8.798       8.751       8.685       8.610       8.490       8.367       8.269       8.154       7.873    
        7.375       6.835       6.446       6.183       5.895       5.521       5.098       4.671       4.370       4.090    
        3.804       3.387       2.887       2.528       2.106       1.532      0.9543      0.5543      0.2789       0.000    
   6    10.00       9.940       9.872       9.818       9.752       9.679       9.620       9.575       9.528       9.491    
        9.461       9.425       9.367       9.289       9.212       9.127       9.040       8.971       8.912       8.853    
        8.812       8.774       8.730       8.660       8.549       8.435       8.343       8.236       8.043       7.638    
        7.081       6.592       6.295       6.098       5.866       5.456       4.997       4.661       4.440       4.196    
        3.920       3.543       3.048       2.602       2.080       1.465      0.8557      0.4875      0.2724       0.000    
   7    10.00       9.922       9.859       9.806       9.743       9.691       9.634       9.587       9.547       9.508    
        9.469       9.418       9.347       9.271       9.202       9.131       9.035       8.941       8.877       8.830    
        8.789       8.748       8.703       8.608       8.494       8.403       8.302       8.129       7.800       7.284    
        6.758       6.378       6.195       6.044       5.747       5.341       5.040       4.750       4.512       4.343    
        4.066       3.677       3.147       2.570       1.927       1.221      0.7173      0.4950      0.2507       0.000    
   8    10.00       9.917       9.859       9.802       9.746       9.699       9.651       9.606       9.567       9.529    
        9.472       9.397       9.324       9.257       9.191       9.104       8.989       8.901       8.853       8.807    
        8.759       8.724       8.650       8.548       8.446       8.338       8.146       7.872       7.420       6.974    
        6.585       6.287       6.150       5.965       5.629       5.318       5.069       4.857       4.668       4.470    
        4.183       3.704       3.093       2.435       1.701       1.102      0.7591      0.4856      0.2237       0.000    
   9    10.00       9.921       9.856       9.800       9.759       9.720       9.673       9.628       9.584       9.541    
        9.468       9.377       9.300       9.232       9.153       9.055       8.952       8.873       8.824       8.776    
        8.733       8.675       8.571       8.477       8.372       8.219       7.940       7.527       7.081       6.762    
        6.457       6.242       6.088       5.842       5.534       5.295       5.119       4.959       4.798       4.583    
        4.227       3.729       3.079       2.344       1.668       1.141      0.7744      0.4817      0.2388       0.000    
  10    10.00       9.920       9.853       9.807       9.771       9.733       9.692       9.653       9.601       9.533    
        9.444       9.352       9.277       9.202       9.119       9.006       8.902       8.839       8.795       8.747    
        8.702       8.607       8.496       8.391       8.245       8.015       7.597       7.150       6.802       6.563    
        6.382       6.207       6.001       5.749       5.489       5.310       5.181       5.049       4.869       4.620    
        4.239       3.693       2.998       2.341       1.807       1.307      0.8295      0.5116      0.2696       0.000    
  11    10.00       9.909       9.858       9.819       9.783       9.749       9.713       9.661       9.587       9.510    
        9.422       9.331       9.259       9.160       9.045       8.946       8.872       8.813       8.769       8.716    
        8.635       8.512       8.352       8.196       7.939       7.597       7.227       6.933       6.654       6.484    
        6.332       6.102       5.870       5.684       5.513       5.383       5.255       5.086       4.873       4.581    
        4.223       3.741       3.038       2.439       1.966       1.486      0.9561      0.5071      0.2036       0.000    
  12    10.00       9.917       9.866       9.826       9.795       9.760       9.720       9.649       9.562       9.482    
        9.398       9.308       9.211       9.091       8.996       8.911       8.833       8.784       8.727       8.646    
        8.487       8.276       8.052       7.819       7.501       7.239       7.047       6.745       6.517       6.384    
        6.224       6.010       5.827       5.672       5.563       5.445       5.293       5.102       4.848       4.542    
        4.189       3.718       3.074       2.540       2.111       1.593       1.006      0.4800      0.1596       0.000    
  13    10.00       9.935       9.888       9.844       9.805       9.765       9.705       9.618       9.527       9.449    
        9.360       9.270       9.167       9.043       8.935       8.850       8.794       8.731       8.650       8.457    
        8.167       7.911       7.668       7.378       7.130       7.014       6.776       6.502       6.387       6.278    
        6.107       5.924       5.794       5.690       5.601       5.493       5.319       5.081       4.833       4.517    
        4.167       3.687       3.023       2.523       2.125       1.559      0.9375      0.4342      0.1255       0.000    
  14    10.00       9.952       9.910       9.864       9.817       9.755       9.668       9.576       9.495       9.406    
        9.317       9.234       9.112       8.973       8.874       8.806       8.715       8.618       8.425       8.086    
        7.776       7.548       7.229       6.992       6.881       6.751       6.506       6.349       6.233       6.128    
        5.985       5.874       5.798       5.715       5.623       5.513       5.317       5.057       4.791       4.470    
        4.094       3.515       2.888       2.485       1.998       1.454      0.9244      0.3966      0.1021       0.000    
  15    10.00       9.962       9.919       9.873       9.819       9.726       9.619       9.538       9.457       9.371    
        9.304       9.206       9.045       8.893       8.802       8.682       8.560       8.435       8.111       7.713    
        7.458       7.134       6.843       6.755       6.688       6.517       6.322       6.168       6.086       6.010    
        5.925       5.864       5.806       5.737       5.640       5.506       5.280       4.984       4.704       4.408    
        4.000       3.436       2.895       2.352       1.763       1.276      0.7948      0.3494      0.1049       0.000    
  16    10.00       9.972       9.930       9.875       9.791       9.676       9.584       9.518       9.445       9.357    
        9.266       9.126       8.940       8.794       8.662       8.520       8.436       8.183       7.712       7.346    
        7.089       6.771       6.664       6.611       6.486       6.270       6.113       6.042       6.018       5.968    
        5.907       5.858       5.812       5.739       5.622       5.455       5.183       4.915       4.694       4.376    
        3.912       3.304       2.681       2.077       1.576       1.094      0.6772      0.3317      0.1119       0.000    
  17    10.00       9.972       9.928       9.855       9.751       9.636       9.559       9.498       9.417       9.318    
        9.167       8.988       8.820       8.660       8.497       8.359       8.153       7.729       7.290       7.037    
        6.785       6.592       6.507       6.385       6.188       6.028       5.988       5.982       5.968       5.926    
        5.880       5.843       5.801       5.733       5.566       5.336       5.103       4.914       4.704       4.304    
        3.684       3.063       2.467       1.874       1.348      0.8854      0.5675      0.2965      0.1218       0.000    
  18    10.00       9.966       9.914       9.827       9.696       9.604       9.543       9.461       9.367       9.229    
        9.046       8.887       8.717       8.502       8.287       8.058       7.756       7.327       6.999       6.778    
        6.574       6.412       6.283       6.109       5.975       5.935       5.925       5.923       5.903       5.872    
        5.847       5.819       5.772       5.655       5.481       5.286       5.090       4.921       4.628       4.092    
        3.457       2.795       2.158       1.670       1.251      0.8300      0.4875      0.2453      0.1175       0.000    
  19    10.00       9.958       9.901       9.774       9.644       9.590       9.522       9.420       9.304       9.155    
        8.988       8.838       8.593       8.265       8.009       7.774       7.409       7.019       6.798       6.629    
        6.418       6.221       6.080       5.946       5.881       5.868       5.864       5.847       5.820       5.811    
        5.800       5.777       5.708       5.595       5.449       5.261       5.084       4.840       4.336       3.778    
        3.265       2.579       1.973       1.586       1.170      0.7489      0.4402      0.2497      0.1279       0.000    
  20    10.00       9.949       9.852       9.723       9.628       9.569       9.495       9.387       9.257       9.122    
        8.950       8.721       8.354       8.029       7.801       7.510       7.148       6.935       6.734       6.498    
        6.266       6.090       5.944       5.850       5.803       5.779       5.751       5.745       5.732       5.738    
        5.739       5.720       5.648       5.543       5.394       5.231       5.010       4.564       4.018       3.571    
        3.012       2.380       1.926       1.552       1.131      0.6647      0.3845      0.2600      0.1340       0.000    
  21    10.00       9.915       9.812       9.703       9.610       9.548       9.469       9.341       9.213       9.085    
        8.855       8.504       8.130       7.884       7.630       7.324       7.055       6.854       6.611       6.362    
        6.140       5.968       5.840       5.741       5.675       5.626       5.610       5.619       5.623       5.640    
        5.659       5.632       5.559       5.461       5.311       5.132       4.785       4.314       3.881       3.337    
        2.807       2.308       1.925       1.545      0.9530      0.5383      0.3892      0.2937      0.1408       0.000    
  22    10.00       9.893       9.769       9.672       9.598       9.524       9.411       9.293       9.180       9.002    
        8.707       8.310       8.013       7.791       7.505       7.192       6.935       6.721       6.500       6.264    
        6.044       5.862       5.691       5.538       5.452       5.433       5.450       5.466       5.504       5.529    
        5.551       5.521       5.461       5.359       5.209       5.030       4.675       4.221       3.654       3.127    
        2.742       2.343       1.882       1.246      0.7435      0.5367      0.4080      0.2717      0.1005       0.000    
  23    10.00       9.861       9.741       9.664       9.586       9.475       9.352       9.264       9.120       8.897    
        8.552       8.212       7.999       7.722       7.351       7.040       6.837       6.663       6.457       6.203    
        5.971       5.758       5.513       5.226       5.016       5.060       5.196       5.286       5.366       5.421    
        5.444       5.427       5.372       5.277       5.136       4.934       4.575       4.013       3.444       3.072    
        2.717       2.214       1.551       1.005      0.7318      0.5473      0.3916      0.2310      9.1942E-02   0.000    
  24    10.00       9.839       9.752       9.661       9.549       9.433       9.339       9.240       9.102       8.807    
        8.483       8.232       7.991       7.621       7.214       6.990       6.820       6.649       6.414       6.176    
        5.969       5.699       5.306       4.762       4.098       4.370       4.775       5.058       5.226       5.313    
        5.355       5.346       5.303       5.198       5.040       4.785       4.331       3.798       3.370       2.983    
        2.547       1.985       1.392      0.9748      0.7332      0.5333      0.3573      0.2503      0.1229       0.000    
  25    10.00       9.858       9.768       9.653       9.536       9.430       9.336       9.245       9.037       8.751    
        8.501       8.248       7.932       7.526       7.225       7.024       6.831       6.626       6.411       6.206    
        5.969       5.710       5.149       4.113       2.269       3.642       4.387       4.830       5.105       5.247    
        5.298       5.294       5.241       5.096       4.879       4.531       4.101       3.682       3.316       2.862    
        2.336       1.799       1.299      0.9663      0.7601      0.5542      0.3765      0.2622      0.1632       0.000    
  26    10.00       9.876       9.790       9.668       9.543       9.446       9.346       9.212       9.007       8.807    
        8.574       8.227       7.841       7.513       7.285       7.089       6.865       6.612       6.405       6.233    
        6.036       5.780       5.296       4.534       3.690       4.046       4.496       4.827       5.081       5.234    
        5.274       5.257       5.169       4.994       4.753       4.421       3.946       3.547       3.203       2.651    
        2.056       1.585       1.286       1.055      0.8197      0.5984      0.4104      0.2849      0.1664       0.000    
  27    10.00       9.901       9.794       9.685       9.577       9.462       9.351       9.216       9.046       8.864    
        8.570       8.180       7.841       7.569       7.377       7.153       6.861       6.598       6.436       6.295    
        6.140       5.904       5.537       5.088       4.633       4.603       4.775       4.988       5.175       5.262    
        5.269       5.236       5.132       4.940       4.657       4.206       3.757       3.427       2.903       2.322    
        1.859       1.556       1.331       1.128      0.8961      0.6531      0.4458      0.3135      0.1978       0.000    
  28    10.00       9.908       9.820       9.721       9.615       9.494       9.370       9.240       9.093       8.880    
        8.536       8.197       7.902       7.635       7.432       7.212       6.974       6.720       6.491       6.345    
        6.222       6.054       5.817       5.491       5.213       5.050       5.086       5.220       5.284       5.305    
        5.281       5.224       5.093       4.847       4.472       4.003       3.613       3.148       2.600       2.186    
        1.856       1.599       1.379       1.168      0.9415      0.7127      0.5058      0.3570      0.2040       0.000    
  29    10.00       9.915       9.828       9.750       9.646       9.537       9.417       9.283       9.122       8.838    
        8.517       8.230       7.950       7.726       7.495       7.261       7.045       6.842       6.622       6.430    
        6.297       6.168       6.012       5.818       5.554       5.425       5.409       5.415       5.416       5.372    
        5.302       5.188       5.029       4.710       4.248       3.831       3.435       2.947       2.508       2.205    
        1.936       1.654       1.405       1.203      0.9987      0.7538      0.5346      0.3731      0.2069       0.000    
  30    10.00       9.926       9.854       9.786       9.693       9.585       9.477       9.326       9.109       8.851    
        8.528       8.216       7.988       7.764       7.545       7.334       7.160       6.971       6.758       6.554    
        6.391       6.282       6.149       6.018       5.874       5.756       5.713       5.620       5.555       5.450    
        5.305       5.109       4.880       4.541       4.175       3.782       3.358       2.900       2.566       2.290    
        1.971       1.688       1.471       1.240      0.9972      0.7802      0.5699      0.3963      0.2227       0.000    
  31    10.00       9.941       9.882       9.817       9.748       9.661       9.539       9.351       9.105       8.833    
        8.522       8.244       8.035       7.817       7.614       7.420       7.247       7.099       6.885       6.681    
        6.532       6.415       6.311       6.209       6.133       6.024       5.905       5.800       5.664       5.498    
        5.265       5.009       4.772       4.493       4.142       3.725       3.294       2.917       2.681       2.417    
        2.063       1.752       1.504       1.270       1.044      0.8210      0.6040      0.4171      0.2160       0.000    
  32    10.00       9.949       9.907       9.851       9.785       9.703       9.573       9.357       9.134       8.877    
        8.557       8.300       8.103       7.879       7.664       7.506       7.355       7.181       7.010       6.809    
        6.655       6.532       6.438       6.350       6.262       6.174       6.035       5.899       5.727       5.498    
        5.227       4.968       4.719       4.450       4.104       3.727       3.388       3.067       2.796       2.494    
        2.167       1.859       1.597       1.328       1.082      0.8930      0.6662      0.4094      0.1828       0.000    
  33    10.00       9.957       9.924       9.876       9.810       9.722       9.553       9.342       9.162       8.932    
        8.640       8.396       8.165       7.914       7.726       7.592       7.461       7.284       7.095       6.923    
        6.753       6.627       6.512       6.415       6.337       6.249       6.104       5.918       5.735       5.513    
        5.240       5.004       4.741       4.407       4.083       3.747       3.472       3.218       2.911       2.578    
        2.295       2.003       1.716       1.437       1.178      0.9673      0.7131      0.4116      0.1789       0.000    
  34    10.00       9.964       9.939       9.899       9.813       9.685       9.529       9.383       9.197       8.970    
        8.722       8.458       8.200       7.956       7.801       7.692       7.551       7.381       7.170       7.004    
        6.852       6.695       6.571       6.474       6.395       6.285       6.117       5.939       5.741       5.484    
        5.243       5.047       4.790       4.466       4.141       3.830       3.569       3.318       3.000       2.698    
        2.444       2.163       1.849       1.571       1.309       1.066      0.7629      0.4632      0.2429       0.000    
  35    10.00       9.971       9.940       9.882       9.777       9.652       9.541       9.414       9.265       9.021    
        8.751       8.488       8.229       8.027       7.889       7.774       7.624       7.446       7.241       7.045    
        6.893       6.747       6.621       6.528       6.441       6.328       6.143       5.930       5.698       5.430    
        5.247       5.045       4.782       4.543       4.270       3.943       3.653       3.441       3.139       2.817    
        2.571       2.284       1.969       1.696       1.422       1.157      0.8746      0.5796      0.2867       0.000    
  36    10.00       9.964       9.915       9.852       9.754       9.639       9.547       9.439       9.278       9.044    
        8.752       8.475       8.291       8.136       7.999       7.853       7.678       7.498       7.283       7.032    
        6.865       6.754       6.643       6.565       6.477       6.335       6.129       5.894       5.611       5.365    
        5.206       5.041       4.812       4.581       4.353       4.059       3.770       3.543       3.274       2.921    
        2.652       2.332       2.017       1.808       1.543       1.247      0.9647      0.6565      0.3212       0.000    
  37    10.00       9.945       9.893       9.831       9.735       9.635       9.530       9.428       9.281       9.011    
        8.707       8.495       8.386       8.238       8.069       7.924       7.712       7.490       7.222       6.969    
        6.853       6.760       6.653       6.569       6.467       6.294       6.085       5.781       5.519       5.355    
        5.213       5.035       4.809       4.627       4.393       4.116       3.889       3.671       3.369       2.981    
        2.628       2.327       2.109       1.892       1.626       1.346       1.063      0.7240      0.3976       0.000    
  38    10.00       9.938       9.871       9.806       9.723       9.628       9.518       9.407       9.240       8.986    
        8.760       8.591       8.452       8.319       8.138       7.907       7.670       7.416       7.119       6.945    
        6.852       6.732       6.625       6.553       6.438       6.242       5.935       5.648       5.508       5.381    
        5.232       5.043       4.838       4.656       4.428       4.174       3.989       3.767       3.381       2.954    
        2.648       2.396       2.179       1.956       1.720       1.436       1.154      0.8373      0.4138       0.000    
  39    10.00       9.921       9.856       9.797       9.718       9.610       9.494       9.380       9.223       9.017    
        8.839       8.711       8.555       8.373       8.118       7.831       7.565       7.271       7.058       6.944    
        6.807       6.668       6.587       6.518       6.407       6.148       5.836       5.659       5.530       5.399    
        5.231       5.051       4.854       4.671       4.498       4.290       4.046       3.777       3.396       2.999    
        2.675       2.416       2.245       2.058       1.792       1.511       1.225      0.8715      0.4084       0.000    
  40    10.00       9.912       9.850       9.791       9.709       9.599       9.486       9.374       9.234       9.062    
        8.917       8.804       8.616       8.338       8.020       7.732       7.451       7.198       7.041       6.902    
        6.745       6.623       6.553       6.468       6.321       6.090       5.876       5.698       5.552       5.416    
        5.252       5.059       4.871       4.719       4.566       4.356       4.074       3.793       3.406       2.980    
        2.677       2.471       2.283       2.123       1.844       1.535       1.274      0.8739      0.4069       0.000    
  41    10.00       9.920       9.849       9.778       9.690       9.603       9.509       9.404       9.267       9.111    
        8.972       8.837       8.598       8.270       7.942       7.673       7.397       7.154       7.001       6.851    
        6.694       6.586       6.509       6.408       6.255       6.081       5.936       5.763       5.580       5.421    
        5.263       5.088       4.908       4.776       4.613       4.403       4.121       3.733       3.289       2.961    
        2.741       2.542       2.347       2.124       1.834       1.539       1.315      0.9310      0.4221       0.000    
  42    10.00       9.920       9.839       9.777       9.713       9.632       9.532       9.414       9.297       9.177    
        9.002       8.773       8.496       8.183       7.879       7.634       7.363       7.126       6.962       6.793    
        6.646       6.551       6.466       6.374       6.235       6.112       5.989       5.793       5.589       5.445    
        5.315       5.124       4.932       4.803       4.653       4.429       4.082       3.623       3.217       2.973    
        2.807       2.629       2.381       2.085       1.806       1.575       1.343      0.9819      0.4845       0.000    
  43    10.00       9.914       9.846       9.792       9.741       9.664       9.565       9.453       9.324       9.141    
        8.917       8.681       8.422       8.097       7.823       7.596       7.354       7.115       6.907       6.750    
        6.617       6.522       6.449       6.373       6.254       6.127       6.002       5.800       5.621       5.515    
        5.357       5.150       4.965       4.832       4.656       4.367       3.965       3.531       3.235       3.048    
        2.871       2.667       2.362       2.058       1.812       1.589       1.389      0.9957      0.4550       0.000    
  44    10.00       9.913       9.854       9.806       9.745       9.687       9.606       9.457       9.266       9.056    
        8.868       8.630       8.317       8.045       7.826       7.566       7.300       7.050       6.844       6.705    
        6.607       6.525       6.451       6.372       6.270       6.139       5.971       5.803       5.683       5.556    
        5.414       5.234       5.021       4.819       4.605       4.280       3.859       3.502       3.273       3.092    
        2.914       2.672       2.377       2.114       1.851       1.612       1.366      0.8990      0.4134       0.000    
  45    10.00       9.923       9.868       9.805       9.746       9.695       9.564       9.388       9.195       9.015    
        8.860       8.543       8.217       8.019       7.785       7.496       7.208       6.976       6.809       6.698    
        6.624       6.546       6.464       6.371       6.257       6.130       5.988       5.858       5.752       5.620    
        5.456       5.269       5.050       4.795       4.539       4.190       3.795       3.513       3.339       3.152    
        2.915       2.637       2.385       2.145       1.912       1.674       1.276      0.7989      0.4021       0.000    
  46    10.00       9.938       9.879       9.806       9.737       9.639       9.496       9.363       9.202       9.008    
        8.752       8.450       8.190       7.939       7.689       7.410       7.142       6.971       6.833       6.727    
        6.651       6.576       6.472       6.356       6.246       6.138       6.026       5.907       5.800       5.684    
        5.536       5.339       5.090       4.787       4.422       4.059       3.767       3.568       3.386       3.191    
        2.910       2.615       2.363       2.174       1.951       1.640       1.188      0.7631      0.3762       0.000    
  47    10.00       9.949       9.894       9.821       9.704       9.575       9.453       9.348       9.200       8.946    
        8.639       8.362       8.135       7.926       7.660       7.357       7.120       6.958       6.848       6.759    
        6.677       6.589       6.481       6.358       6.251       6.166       6.073       5.955       5.832       5.718    
        5.589       5.424       5.094       4.669       4.313       4.052       3.807       3.635       3.474       3.205    
        2.863       2.550       2.322       2.191       1.945       1.565       1.124      0.7361      0.3719       0.000    
  48    10.00       9.954       9.897       9.789       9.670       9.558       9.435       9.329       9.179       8.892    
        8.557       8.326       8.140       7.883       7.574       7.300       7.122       6.959       6.850       6.780    
        6.697       6.592       6.475       6.363       6.274       6.206       6.123       5.993       5.851       5.728    
        5.592       5.394       5.050       4.698       4.379       4.091       3.873       3.697       3.491       3.149    
        2.781       2.540       2.359       2.127       1.803       1.466       1.088      0.7414      0.3925       0.000    
  49    10.00       9.952       9.866       9.762       9.671       9.551       9.432       9.320       9.131       8.827    
        8.528       8.307       8.074       7.815       7.581       7.326       7.079       6.927       6.860       6.795    
        6.717       6.595       6.460       6.362       6.294       6.244       6.149       5.999       5.849       5.738    
        5.591       5.330       5.027       4.777       4.510       4.193       3.910       3.693       3.451       3.084    
        2.788       2.576       2.327       1.991       1.705       1.401       1.070      0.7537      0.3838       0.000    
  50    10.00       9.940       9.844       9.749       9.677       9.565       9.432       9.290       9.086       8.846    
        8.543       8.246       8.004       7.797       7.610       7.324       7.042       6.927       6.868       6.805    
        6.730       6.593       6.449       6.360       6.306       6.260       6.153       5.992       5.849       5.735    
        5.575       5.301       5.068       4.854       4.565       4.249       3.963       3.675       3.326       3.002    
        2.845       2.622       2.257       1.920       1.680       1.390       1.103      0.7362      0.3024       0.000    

 HEAD WILL BE SAVED ON UNIT   51 AT END OF TIME STEP  59, STRESS PERIOD    2

 DRAWDOWN WILL BE SAVED ON UNIT   52 AT END OF TIME STEP  59, STRESS PERIOD    2
1
  VOLUMETRIC BUDGET FOR ENTIRE MODEL AT END OF TIME STEP 59 IN STRESS PERIOD   2
  ------------------------------------------------------------------------------

     CUMULATIVE VOLUMES      L**3       RATES FOR THIS TIME STEP      L**3/T
     ------------------                 ------------------------

           IN:                                      IN:
           ---                                      ---
             STORAGE =       28497.0859               STORAGE =         442.8694
       CONSTANT HEAD =       33365.2500         CONSTANT HEAD =         594.3823
               WELLS =           0.0000                 WELLS =           0.0000

            TOTAL IN =       61862.3359              TOTAL IN =        1037.2517

          OUT:                                     OUT:
          ----                                     ----
             STORAGE =       9.3745E-03               STORAGE =           0.0000
       CONSTANT HEAD =       32362.3164         CONSTANT HEAD =         537.2520
               WELLS =       29500.0000                 WELLS =         500.0000

           TOTAL OUT =       61862.3242             TOTAL OUT =        1037.2520

            IN - OUT =       1.1719E-02              IN - OUT =      -2.4414E-04

 PERCENT DISCREPANCY =           0.00     PERCENT DISCREPANCY =           0.00






          TIME SUMMARY AT END OF TIME STEP  59 IN STRESS PERIOD    2
                    SECONDS     MINUTES      HOURS       DAYS        YEARS
                    -----------------------------------------------------------
   TIME STEP LENGTH  86400.      1440.0      24.000      1.0000     2.73785E-03
 STRESS PERIOD TIME 5.09760E+06  84960.      1416.0      59.000     0.16153    
         TOTAL TIME 5.18400E+06  86400.      1440.0      60.000     0.16427    
1
 
 SOLVING FOR HEAD 

 OUTPUT CONTROL FOR STRESS PERIOD    2   TIME STEP  60
    SAVE HEAD FOR ALL LAYERS
    SAVE DRAWDOWN FOR ALL LAYERS
    SAVE BUDGET
    PRINT HEAD FOR ALL LAYERS
    PRINT BUDGET
 UBDSV1 SAVING "         STORAGE" ON UNIT  53 AT TIME STEP 60, STRESS PERIOD   2
 UBDSV2 SAVING "   CONSTANT HEAD" ON UNIT  53 AT TIME STEP 60, STRESS PERIOD   2
 UBDSV1 SAVING "FLOW RIGHT FACE " ON UNIT  53 AT TIME STEP 60, STRESS PERIOD   2
 UBDSV1 SAVING "FLOW FRONT FACE " ON UNIT  53 AT TIME STEP 60, STRESS PERIOD   2
1
              HEAD IN LAYER   1 AT END OF TIME STEP  60 IN STRESS PERIOD    2
  ---------------------------------------------------------------------------

            1           2           3           4           5           6           7           8           9          10
           11          12          13          14          15          16          17          18          19          20
           21          22          23          24          25          26          27          28          29          30
           31          32          33          34          35          36          37          38          39          40
           41          42          43          44          45          46          47          48          49          50
 ........................................................................................................................
   1    10.00       9.955       9.894       9.833       9.783       9.721       9.660       9.596       9.511       9.441    
        9.399       9.358       9.312       9.267       9.194       9.113       9.026       8.958       8.927       8.893    
        8.852       8.816       8.780       8.734       8.670       8.560       8.427       8.297       8.149       8.002    
        7.792       7.459       7.067       6.654       6.191       5.763       5.401       5.064       4.604       4.104    
        3.680       3.260       2.681       2.132       1.747       1.362       1.038      0.8297      0.5503       0.000    
   2    10.00       9.955       9.900       9.839       9.785       9.728       9.660       9.577       9.494       9.440    
        9.403       9.366       9.331       9.274       9.190       9.108       9.028       8.961       8.928       8.889    
        8.847       8.820       8.791       8.742       8.669       8.563       8.429       8.294       8.155       8.008    
        7.782       7.439       7.026       6.559       6.091       5.679       5.354       5.024       4.558       4.089    
        3.660       3.156       2.633       2.199       1.817       1.458       1.089      0.7880      0.4207       0.000    
   3    10.00       9.950       9.898       9.842       9.787       9.721       9.637       9.558       9.505       9.456    
        9.413       9.381       9.346       9.293       9.209       9.106       9.021       8.966       8.925       8.886    
        8.851       8.822       8.792       8.731       8.653       8.546       8.418       8.317       8.170       7.996    
        7.703       7.304       6.863       6.409       5.980       5.597       5.308       4.967       4.462       4.006    
        3.649       3.191       2.710       2.293       1.897       1.535       1.099      0.6760      0.2973       0.000    
   4    10.00       9.954       9.901       9.840       9.772       9.696       9.616       9.557       9.512       9.466    
        9.429       9.401       9.363       9.305       9.228       9.115       9.021       8.970       8.925       8.889    
        8.848       8.814       8.776       8.711       8.631       8.527       8.403       8.289       8.174       7.956    
        7.577       7.087       6.616       6.268       5.949       5.579       5.208       4.775       4.348       4.017    
        3.701       3.295       2.815       2.404       1.989       1.551       1.048      0.6002      0.2796       0.000    
   5    10.00       9.951       9.894       9.825       9.755       9.684       9.614       9.564       9.517       9.478    
        9.445       9.416       9.371       9.303       9.213       9.110       9.030       8.974       8.928       8.877    
        8.830       8.795       8.748       8.681       8.606       8.486       8.363       8.265       8.150       7.869    
        7.370       6.830       6.441       6.178       5.890       5.517       5.094       4.667       4.366       4.086    
        3.801       3.384       2.884       2.526       2.104       1.531      0.9537      0.5540      0.2787       0.000    
   6    10.00       9.939       9.872       9.818       9.752       9.678       9.619       9.574       9.526       9.489    
        9.459       9.424       9.365       9.287       9.209       9.124       9.037       8.967       8.908       8.850    
        8.808       8.770       8.727       8.656       8.545       8.430       8.339       8.232       8.038       7.633    
        7.076       6.587       6.290       6.093       5.861       5.451       4.993       4.657       4.436       4.192    
        3.917       3.540       3.046       2.600       2.078       1.464      0.8552      0.4872      0.2722       0.000    
   7    10.00       9.922       9.859       9.806       9.742       9.690       9.633       9.586       9.546       9.507    
        9.467       9.416       9.345       9.269       9.199       9.128       9.032       8.937       8.874       8.826    
        8.785       8.744       8.699       8.604       8.490       8.398       8.297       8.124       7.795       7.278    
        6.752       6.371       6.189       6.038       5.741       5.335       5.035       4.745       4.507       4.339    
        4.062       3.674       3.145       2.568       1.925       1.220      0.7168      0.4947      0.2505       0.000    
   8    10.00       9.917       9.858       9.802       9.745       9.698       9.650       9.604       9.565       9.528    
        9.470       9.395       9.321       9.254       9.188       9.101       8.986       8.897       8.849       8.803    
        8.755       8.720       8.646       8.543       8.442       8.333       8.141       7.866       7.414       6.967    
        6.578       6.280       6.143       5.958       5.623       5.312       5.063       4.851       4.663       4.465    
        4.179       3.701       3.090       2.433       1.700       1.102      0.7586      0.4853      0.2236       0.000    
   9    10.00       9.921       9.855       9.799       9.758       9.719       9.672       9.627       9.582       9.539    
        9.466       9.375       9.298       9.229       9.150       9.052       8.948       8.870       8.820       8.772    
        8.728       8.670       8.567       8.472       8.367       8.214       7.934       7.520       7.074       6.755    
        6.449       6.234       6.081       5.835       5.527       5.288       5.112       4.953       4.792       4.578    
        4.223       3.725       3.076       2.342       1.667       1.140      0.7740      0.4814      0.2387       0.000    
  10    10.00       9.919       9.853       9.806       9.770       9.732       9.691       9.652       9.600       9.531    
        9.442       9.350       9.275       9.200       9.116       9.002       8.898       8.835       8.791       8.743    
        8.698       8.602       8.491       8.386       8.239       8.009       7.590       7.143       6.794       6.554    
        6.374       6.199       5.993       5.741       5.482       5.303       5.174       5.043       4.864       4.615    
        4.234       3.689       2.995       2.339       1.806       1.306      0.8290      0.5113      0.2695       0.000    
  11    10.00       9.909       9.857       9.819       9.782       9.749       9.712       9.659       9.586       9.508    
        9.420       9.329       9.256       9.156       9.041       8.942       8.868       8.809       8.765       8.711    
        8.630       8.506       8.346       8.190       7.932       7.589       7.219       6.924       6.645       6.475    
        6.323       6.094       5.862       5.676       5.505       5.376       5.248       5.079       4.867       4.576    
        4.219       3.737       3.035       2.438       1.964       1.486      0.9555      0.5068      0.2035       0.000    
  12    10.00       9.917       9.866       9.825       9.794       9.759       9.719       9.647       9.560       9.480    
        9.396       9.306       9.208       9.087       8.992       8.907       8.829       8.780       8.723       8.641    
        8.482       8.270       8.045       7.811       7.492       7.230       7.038       6.735       6.507       6.375    
        6.214       6.001       5.818       5.663       5.554       5.437       5.285       5.095       4.842       4.537    
        4.185       3.714       3.071       2.538       2.109       1.592       1.006      0.4797      0.1595       0.000    
  13    10.00       9.935       9.888       9.844       9.805       9.764       9.704       9.616       9.525       9.447    
        9.358       9.267       9.164       9.039       8.930       8.845       8.790       8.726       8.645       8.451    
        8.160       7.903       7.660       7.368       7.120       7.003       6.765       6.491       6.376       6.267    
        6.097       5.914       5.785       5.681       5.592       5.485       5.311       5.074       4.826       4.512    
        4.162       3.684       3.020       2.521       2.124       1.558      0.9370      0.4340      0.1254       0.000    
  14    10.00       9.952       9.910       9.863       9.816       9.754       9.667       9.574       9.493       9.403    
        9.314       9.230       9.108       8.968       8.869       8.801       8.710       8.612       8.419       8.078    
        7.768       7.539       7.218       6.981       6.870       6.739       6.494       6.337       6.222       6.116    
        5.973       5.863       5.788       5.705       5.614       5.504       5.309       5.049       4.784       4.464    
        4.089       3.511       2.886       2.483       1.996       1.453      0.9239      0.3964      0.1020       0.000    
  15    10.00       9.962       9.919       9.872       9.818       9.725       9.617       9.536       9.455       9.368    
        9.301       9.203       9.041       8.888       8.797       8.676       8.554       8.428       8.103       7.703    
        7.447       7.123       6.832       6.743       6.676       6.505       6.309       6.155       6.074       5.998    
        5.914       5.853       5.796       5.727       5.631       5.496       5.271       4.976       4.697       4.402    
        3.996       3.433       2.892       2.350       1.762       1.275      0.7944      0.3492      0.1048       0.000    
  16    10.00       9.972       9.930       9.874       9.790       9.675       9.582       9.516       9.443       9.354    
        9.263       9.122       8.935       8.788       8.656       8.513       8.429       8.175       7.702       7.335    
        7.077       6.759       6.652       6.599       6.473       6.257       6.099       6.029       6.006       5.956    
        5.895       5.846       5.801       5.728       5.612       5.445       5.175       4.907       4.687       4.370    
        3.907       3.300       2.679       2.076       1.575       1.093      0.6768      0.3315      0.1118       0.000    
  17    10.00       9.972       9.927       9.854       9.749       9.634       9.557       9.496       9.414       9.314    
        9.163       8.983       8.815       8.654       8.490       8.352       8.144       7.719       7.278       7.025    
        6.773       6.579       6.494       6.372       6.175       6.015       5.974       5.969       5.955       5.913    
        5.867       5.831       5.790       5.721       5.555       5.327       5.094       4.906       4.697       4.298    
        3.679       3.059       2.465       1.873       1.347      0.8848      0.5672      0.2964      0.1218       0.000    
  18    10.00       9.966       9.913       9.826       9.694       9.602       9.541       9.458       9.364       9.225    
        9.041       8.881       8.711       8.495       8.278       8.049       7.746       7.315       6.986       6.765    
        6.560       6.398       6.270       6.095       5.961       5.921       5.911       5.910       5.889       5.859    
        5.834       5.807       5.760       5.644       5.470       5.276       5.081       4.913       4.621       4.086    
        3.452       2.792       2.156       1.669       1.250      0.8295      0.4872      0.2451      0.1175       0.000    
  19    10.00       9.958       9.900       9.773       9.642       9.587       9.519       9.417       9.300       9.151    
        8.983       8.832       8.586       8.257       8.000       7.764       7.397       7.006       6.785       6.615    
        6.404       6.207       6.066       5.932       5.867       5.854       5.850       5.833       5.806       5.798    
        5.787       5.765       5.696       5.583       5.438       5.251       5.075       4.832       4.330       3.773    
        3.261       2.577       1.972       1.585       1.169      0.7484      0.4399      0.2496      0.1279       0.000    
  20    10.00       9.948       9.852       9.721       9.626       9.567       9.493       9.383       9.253       9.117    
        8.945       8.714       8.346       8.019       7.790       7.499       7.135       6.922       6.720       6.484    
        6.252       6.076       5.930       5.835       5.788       5.765       5.737       5.731       5.717       5.724    
        5.725       5.707       5.635       5.531       5.383       5.221       5.000       4.557       4.012       3.566    
        3.009       2.378       1.925       1.551       1.130      0.6643      0.3843      0.2599      0.1339       0.000    
  21    10.00       9.914       9.811       9.702       9.608       9.546       9.466       9.338       9.209       9.080    
        8.849       8.496       8.121       7.874       7.618       7.312       7.042       6.840       6.598       6.348    
        6.126       5.954       5.826       5.727       5.661       5.611       5.595       5.605       5.609       5.626    
        5.644       5.617       5.545       5.448       5.299       5.121       4.776       4.307       3.875       3.333    
        2.804       2.306       1.923       1.544      0.9524      0.5380      0.3890      0.2935      0.1408       0.000    
  22    10.00       9.892       9.768       9.670       9.596       9.521       9.408       9.289       9.175       8.996    
        8.700       8.301       8.003       7.780       7.493       7.179       6.921       6.707       6.486       6.250    
        6.029       5.847       5.676       5.523       5.437       5.418       5.435       5.451       5.489       5.514    
        5.536       5.506       5.447       5.346       5.197       5.019       4.666       4.214       3.649       3.124    
        2.740       2.341       1.880       1.246      0.7431      0.5364      0.4078      0.2715      0.1004       0.000    
  23    10.00       9.860       9.739       9.662       9.584       9.472       9.348       9.260       9.115       8.891    
        8.544       8.203       7.988       7.711       7.339       7.026       6.824       6.650       6.443       6.189    
        5.957       5.743       5.498       5.210       5.001       5.045       5.181       5.270       5.351       5.406    
        5.428       5.412       5.358       5.263       5.123       4.923       4.566       4.007       3.439       3.068    
        2.714       2.212       1.550       1.005      0.7314      0.5471      0.3914      0.2309      9.1904E-02   0.000    
  24    10.00       9.838       9.751       9.659       9.546       9.429       9.335       9.236       9.097       8.800    
        8.475       8.223       7.980       7.610       7.202       6.977       6.806       6.635       6.400       6.161    
        5.955       5.684       5.291       4.747       4.082       4.354       4.760       5.043       5.210       5.297    
        5.340       5.331       5.288       5.184       5.027       4.775       4.322       3.792       3.366       2.979    
        2.545       1.984       1.391      0.9744      0.7329      0.5331      0.3571      0.2502      0.1228       0.000    
  25    10.00       9.857       9.767       9.651       9.533       9.426       9.332       9.241       9.032       8.744    
        8.493       8.239       7.921       7.514       7.212       7.011       6.817       6.612       6.397       6.192    
        5.954       5.695       5.134       4.097       2.253       3.626       4.371       4.814       5.089       5.231    
        5.283       5.279       5.227       5.083       4.867       4.522       4.094       3.677       3.312       2.859    
        2.334       1.798       1.298      0.9659      0.7598      0.5540      0.3763      0.2621      0.1631       0.000    
  26    10.00       9.876       9.789       9.666       9.540       9.443       9.342       9.208       9.001       8.801    
        8.566       8.218       7.830       7.501       7.272       7.076       6.851       6.599       6.391       6.219    
        6.021       5.765       5.281       4.518       3.674       4.029       4.479       4.811       5.065       5.218    
        5.258       5.242       5.155       4.981       4.742       4.412       3.939       3.542       3.199       2.648    
        2.054       1.584       1.285       1.055      0.8193      0.5981      0.4102      0.2847      0.1664       0.000    
  27    10.00       9.901       9.793       9.683       9.575       9.459       9.347       9.211       9.041       8.858    
        8.562       8.171       7.830       7.557       7.365       7.140       6.847       6.584       6.422       6.281    
        6.126       5.889       5.522       5.073       4.617       4.587       4.759       4.971       5.159       5.246    
        5.254       5.221       5.118       4.927       4.647       4.198       3.751       3.422       2.900       2.320    
        1.857       1.555       1.330       1.128      0.8957      0.6528      0.4457      0.3134      0.1977       0.000    
  28    10.00       9.907       9.819       9.719       9.613       9.491       9.367       9.236       9.088       8.874    
        8.529       8.188       7.892       7.624       7.420       7.200       6.961       6.707       6.477       6.331    
        6.208       6.039       5.802       5.476       5.197       5.034       5.069       5.204       5.267       5.289    
        5.266       5.209       5.080       4.836       4.463       3.996       3.608       3.144       2.597       2.185    
        1.855       1.598       1.378       1.167      0.9411      0.7124      0.5056      0.3569      0.2040       0.000    
  29    10.00       9.914       9.828       9.749       9.644       9.535       9.414       9.279       9.117       8.832    
        8.510       8.222       7.941       7.715       7.484       7.250       7.033       6.829       6.609       6.416    
        6.283       6.154       5.997       5.803       5.539       5.409       5.393       5.399       5.400       5.356    
        5.287       5.175       5.017       4.701       4.241       3.825       3.431       2.944       2.506       2.203    
        1.935       1.654       1.404       1.202      0.9983      0.7535      0.5344      0.3730      0.2068       0.000    
  30    10.00       9.925       9.854       9.785       9.692       9.583       9.474       9.322       9.105       8.845    
        8.520       8.208       7.978       7.753       7.534       7.323       7.148       6.959       6.745       6.540    
        6.377       6.268       6.135       6.003       5.859       5.741       5.698       5.605       5.540       5.436    
        5.292       5.097       4.870       4.533       4.169       3.777       3.354       2.897       2.565       2.288    
        1.970       1.687       1.470       1.240      0.9968      0.7799      0.5697      0.3962      0.2226       0.000    
  31    10.00       9.941       9.882       9.816       9.747       9.659       9.537       9.348       9.100       8.827    
        8.515       8.236       8.026       7.807       7.603       7.409       7.235       7.088       6.873       6.668    
        6.519       6.401       6.297       6.195       6.119       6.010       5.891       5.786       5.650       5.485    
        5.254       5.000       4.763       4.486       4.137       3.721       3.291       2.915       2.679       2.416    
        2.062       1.751       1.503       1.270       1.044      0.8207      0.6038      0.4170      0.2159       0.000    
  32    10.00       9.949       9.907       9.850       9.784       9.701       9.571       9.354       9.130       8.871    
        8.550       8.292       8.095       7.870       7.654       7.496       7.344       7.170       6.998       6.797    
        6.643       6.519       6.425       6.337       6.249       6.161       6.022       5.886       5.715       5.487    
        5.218       4.960       4.712       4.444       4.099       3.723       3.386       3.064       2.794       2.493    
        2.166       1.858       1.597       1.328       1.082      0.8928      0.6661      0.4093      0.1828       0.000    
  33    10.00       9.957       9.924       9.875       9.809       9.721       9.551       9.339       9.158       8.927    
        8.634       8.389       8.157       7.905       7.716       7.583       7.451       7.273       7.084       6.911    
        6.741       6.615       6.500       6.402       6.324       6.236       6.092       5.906       5.725       5.504    
        5.233       4.997       4.735       4.402       4.079       3.744       3.469       3.216       2.910       2.577    
        2.294       2.003       1.715       1.437       1.178      0.9671      0.7129      0.4115      0.1789       0.000    
  34    10.00       9.964       9.939       9.898       9.812       9.683       9.527       9.380       9.193       8.965    
        8.717       8.451       8.193       7.948       7.792       7.682       7.541       7.371       7.159       6.993    
        6.840       6.684       6.559       6.462       6.384       6.273       6.106       5.928       5.732       5.476    
        5.236       5.041       4.785       4.462       4.138       3.828       3.567       3.316       2.999       2.697    
        2.443       2.163       1.849       1.571       1.309       1.066      0.7628      0.4631      0.2428       0.000    
  35    10.00       9.970       9.939       9.882       9.776       9.651       9.539       9.412       9.262       9.017    
        8.746       8.482       8.222       8.020       7.880       7.765       7.615       7.436       7.231       7.035    
        6.883       6.737       6.611       6.518       6.431       6.318       6.134       5.921       5.691       5.424    
        5.241       5.040       4.778       4.540       4.268       3.941       3.651       3.439       3.138       2.816    
        2.571       2.283       1.968       1.695       1.422       1.156      0.8745      0.5796      0.2867       0.000    
  36    10.00       9.964       9.915       9.852       9.753       9.638       9.545       9.437       9.275       9.040    
        8.747       8.469       8.284       8.129       7.992       7.845       7.669       7.489       7.274       7.023    
        6.857       6.746       6.635       6.556       6.468       6.326       6.121       5.887       5.605       5.360    
        5.202       5.037       4.809       4.579       4.350       4.058       3.769       3.542       3.273       2.920    
        2.652       2.331       2.017       1.808       1.543       1.247      0.9646      0.6565      0.3212       0.000    
  37    10.00       9.945       9.893       9.830       9.734       9.634       9.529       9.426       9.279       9.007    
        8.703       8.490       8.380       8.232       8.062       7.917       7.704       7.482       7.214       6.961    
        6.846       6.753       6.645       6.561       6.459       6.287       6.078       5.776       5.515       5.351    
        5.210       5.032       4.807       4.625       4.392       4.115       3.888       3.670       3.368       2.981    
        2.628       2.327       2.108       1.892       1.626       1.346       1.063      0.7240      0.3975       0.000    
  38    10.00       9.938       9.871       9.806       9.722       9.626       9.516       9.405       9.237       8.983    
        8.756       8.587       8.447       8.313       8.132       7.900       7.663       7.410       7.112       6.939    
        6.845       6.725       6.619       6.546       6.432       6.236       5.930       5.645       5.505       5.378    
        5.229       5.040       4.836       4.654       4.426       4.173       3.988       3.766       3.380       2.954    
        2.648       2.396       2.179       1.955       1.720       1.435       1.154      0.8372      0.4137       0.000    
  39    10.00       9.920       9.855       9.797       9.717       9.609       9.493       9.378       9.221       9.014    
        8.836       8.707       8.550       8.368       8.113       7.825       7.559       7.266       7.053       6.938    
        6.802       6.663       6.582       6.513       6.403       6.144       5.833       5.656       5.527       5.396    
        5.228       5.049       4.852       4.670       4.497       4.289       4.045       3.776       3.396       2.999    
        2.675       2.415       2.244       2.057       1.792       1.510       1.225      0.8714      0.4083       0.000    
  40    10.00       9.912       9.850       9.791       9.708       9.598       9.485       9.372       9.232       9.060    
        8.914       8.801       8.612       8.334       8.016       7.728       7.447       7.194       7.036       6.897    
        6.740       6.619       6.548       6.464       6.317       6.087       5.874       5.696       5.550       5.414    
        5.250       5.057       4.870       4.718       4.565       4.355       4.073       3.792       3.405       2.979    
        2.676       2.471       2.283       2.123       1.844       1.535       1.274      0.8738      0.4068       0.000    
  41    10.00       9.920       9.849       9.777       9.689       9.602       9.508       9.403       9.265       9.109    
        8.969       8.834       8.595       8.266       7.939       7.669       7.393       7.150       6.997       6.847    
        6.690       6.583       6.505       6.405       6.252       6.078       5.934       5.760       5.578       5.419    
        5.261       5.086       4.907       4.774       4.612       4.402       4.120       3.732       3.288       2.960    
        2.740       2.542       2.347       2.124       1.834       1.538       1.315      0.9309      0.4221       0.000    
  42    10.00       9.920       9.839       9.777       9.712       9.632       9.531       9.413       9.295       9.176    
        9.000       8.771       8.493       8.180       7.876       7.630       7.360       7.123       6.959       6.790    
        6.643       6.548       6.463       6.372       6.232       6.110       5.987       5.791       5.587       5.443    
        5.314       5.122       4.930       4.801       4.651       4.428       4.081       3.623       3.216       2.972    
        2.806       2.629       2.381       2.084       1.806       1.575       1.343      0.9818      0.4844       0.000    
  43    10.00       9.913       9.845       9.792       9.740       9.663       9.565       9.452       9.322       9.139    
        8.915       8.680       8.420       8.094       7.821       7.593       7.351       7.112       6.905       6.747    
        6.614       6.519       6.446       6.371       6.252       6.125       6.000       5.798       5.620       5.513    
        5.355       5.149       4.963       4.830       4.655       4.366       3.965       3.530       3.234       3.047    
        2.871       2.666       2.362       2.058       1.812       1.589       1.389      0.9956      0.4550       0.000    
  44    10.00       9.913       9.854       9.806       9.744       9.687       9.605       9.456       9.265       9.055    
        8.867       8.628       8.315       8.043       7.824       7.564       7.298       7.047       6.841       6.703    
        6.605       6.523       6.449       6.370       6.267       6.137       5.969       5.802       5.681       5.554    
        5.412       5.232       5.020       4.818       4.604       4.279       3.859       3.501       3.272       3.091    
        2.913       2.671       2.377       2.114       1.850       1.611       1.366      0.8989      0.4134       0.000    
  45    10.00       9.923       9.868       9.805       9.745       9.695       9.563       9.387       9.194       9.014    
        8.859       8.541       8.216       8.018       7.783       7.494       7.206       6.974       6.807       6.696    
        6.621       6.544       6.462       6.369       6.255       6.128       5.986       5.856       5.751       5.619    
        5.454       5.268       5.049       4.793       4.538       4.189       3.794       3.512       3.338       3.152    
        2.914       2.637       2.385       2.145       1.912       1.673       1.276      0.7988      0.4020       0.000    
  46    10.00       9.938       9.879       9.806       9.737       9.639       9.496       9.362       9.201       9.007    
        8.751       8.449       8.188       7.937       7.687       7.408       7.140       6.969       6.831       6.725    
        6.649       6.574       6.470       6.354       6.244       6.136       6.024       5.905       5.799       5.682    
        5.534       5.337       5.089       4.786       4.421       4.058       3.766       3.567       3.385       3.190    
        2.910       2.614       2.363       2.173       1.951       1.640       1.188      0.7630      0.3762       0.000    
  47    10.00       9.949       9.893       9.821       9.704       9.575       9.452       9.348       9.199       8.945    
        8.638       8.361       8.134       7.924       7.659       7.355       7.119       6.956       6.846       6.757    
        6.675       6.587       6.479       6.356       6.249       6.164       6.071       5.953       5.830       5.716    
        5.587       5.422       5.093       4.668       4.312       4.051       3.806       3.635       3.474       3.205    
        2.863       2.550       2.322       2.191       1.945       1.565       1.123      0.7361      0.3719       0.000    
  48    10.00       9.954       9.897       9.789       9.669       9.557       9.434       9.329       9.179       8.892    
        8.556       8.324       8.139       7.882       7.573       7.299       7.121       6.957       6.848       6.778    
        6.695       6.590       6.473       6.361       6.272       6.204       6.121       5.991       5.849       5.726    
        5.591       5.392       5.049       4.697       4.379       4.091       3.872       3.696       3.491       3.149    
        2.781       2.540       2.359       2.127       1.803       1.466       1.088      0.7414      0.3925       0.000    
  49    10.00       9.952       9.866       9.761       9.671       9.551       9.431       9.320       9.131       8.827    
        8.527       8.305       8.073       7.813       7.580       7.325       7.077       6.925       6.858       6.793    
        6.715       6.593       6.458       6.360       6.293       6.242       6.147       5.997       5.847       5.736    
        5.589       5.328       5.026       4.776       4.509       4.192       3.909       3.693       3.450       3.084    
        2.788       2.576       2.326       1.991       1.704       1.401       1.070      0.7536      0.3838       0.000    
  50    10.00       9.940       9.844       9.749       9.676       9.564       9.432       9.290       9.085       8.845    
        8.542       8.245       8.003       7.796       7.608       7.322       7.040       6.925       6.867       6.804    
        6.728       6.591       6.447       6.358       6.304       6.258       6.152       5.990       5.848       5.734    
        5.574       5.300       5.066       4.853       4.564       4.248       3.962       3.674       3.325       3.001    
        2.844       2.622       2.257       1.920       1.680       1.390       1.103      0.7361      0.3024       0.000    

 HEAD WILL BE SAVED ON UNIT   51 AT END OF TIME STEP  60, STRESS PERIOD    2

 DRAWDOWN WILL BE SAVED ON UNIT   52 AT END OF TIME STEP  60, STRESS PERIOD    2
1
  VOLUMETRIC BUDGET FOR ENTIRE MODEL AT END OF TIME STEP 60 IN STRESS PERIOD   2
  ------------------------------------------------------------------------------

     CUMULATIVE VOLUMES      L**3       RATES FOR THIS TIME STEP      L**3/T
     ------------------                 ------------------------

           IN:                                      IN:
           ---                                      ---
             STORAGE =       28937.9941               STORAGE =         440.9073
       CONSTANT HEAD =       33961.4219         CONSTANT HEAD =         596.1716
               WELLS =           0.0000                 WELLS =           0.0000

            TOTAL IN =       62899.4141              TOTAL IN =        1037.0789

          OUT:                                     OUT:
          ----                                     ----
             STORAGE =       9.3745E-03               STORAGE =           0.0000
       CONSTANT HEAD =       32899.3945         CONSTANT HEAD =         537.0784
               WELLS =       30000.0000                 WELLS =         500.0000

           TOTAL OUT =       62899.4023             TOTAL OUT =        1037.0784

            IN - OUT =       1.1719E-02              IN - OUT =       4.8828E-04

 PERCENT DISCREPANCY =           0.00     PERCENT DISCREPANCY =           0.00






          TIME SUMMARY AT END OF TIME STEP  60 IN STRESS PERIOD    2
                    SECONDS     MINUTES      HOURS       DAYS        YEARS
                    -----------------------------------------------------------
   TIME STEP LENGTH  86400.      1440.0      24.000      1.0000     2.73785E-03
 STRESS PERIOD TIME 5.18400E+06  86400.      1440.0      60.000     0.16427    
         TOTAL TIME 5.27040E+06  87840.      1464.0      61.000     0.16701    
1
 
 SOLVING FOR HEAD 

 OUTPUT CONTROL FOR STRESS PERIOD    2   TIME STEP  61
    SAVE HEAD FOR ALL LAYERS
    SAVE DRAWDOWN FOR ALL LAYERS
    SAVE BUDGET
    PRINT HEAD FOR ALL LAYERS
    PRINT BUDGET
 UBDSV1 SAVING "         STORAGE" ON UNIT  53 AT TIME STEP 61, STRESS PERIOD   2
 UBDSV2 SAVING "   CONSTANT HEAD" ON UNIT  53 AT TIME STEP 61, STRESS PERIOD   2
 UBDSV1 SAVING "FLOW RIGHT FACE " ON UNIT  53 AT TIME STEP 61, STRESS PERIOD   2
 UBDSV1 SAVING "FLOW FRONT FACE " ON UNIT  53 AT TIME STEP 61, STRESS PERIOD   2
1
              HEAD IN LAYER   1 AT END OF TIME STEP  61 IN STRESS PERIOD    2
  ---------------------------------------------------------------------------

            1           2           3           4           5           6           7           8           9          10
           11          12          13          14          15          16          17          18          19          20
           21          22          23          24          25          26          27          28          29          30
           31          32          33          34          35          36          37          38          39          40
           41          42          43          44          45          46          47          48          49          50
 ........................................................................................................................
   1    10.00       9.955       9.894       9.833       9.782       9.720       9.659       9.595       9.509       9.439    
        9.398       9.356       9.310       9.264       9.191       9.111       9.023       8.955       8.924       8.890    
        8.848       8.813       8.776       8.730       8.667       8.556       8.423       8.294       8.146       7.998    
        7.789       7.456       7.064       6.651       6.188       5.760       5.397       5.061       4.601       4.102    
        3.677       3.258       2.679       2.130       1.746       1.361       1.038      0.8292      0.5500       0.000    
   2    10.00       9.955       9.900       9.838       9.784       9.727       9.659       9.575       9.493       9.439    
        9.402       9.364       9.329       9.272       9.188       9.105       9.025       8.958       8.925       8.886    
        8.843       8.816       8.787       8.738       8.665       8.560       8.425       8.291       8.152       8.005    
        7.778       7.435       7.022       6.555       6.088       5.675       5.351       5.021       4.555       4.086    
        3.658       3.154       2.631       2.197       1.816       1.457       1.088      0.7875      0.4205       0.000    
   3    10.00       9.950       9.898       9.841       9.787       9.720       9.636       9.556       9.504       9.455    
        9.412       9.379       9.344       9.291       9.207       9.103       9.018       8.963       8.922       8.883    
        8.847       8.818       8.789       8.728       8.649       8.542       8.415       8.313       8.166       7.992    
        7.699       7.300       6.859       6.406       5.976       5.593       5.304       4.964       4.459       4.003    
        3.647       3.188       2.708       2.292       1.896       1.534       1.098      0.6756      0.2972       0.000    
   4    10.00       9.954       9.901       9.839       9.771       9.695       9.614       9.555       9.511       9.464    
        9.427       9.399       9.361       9.303       9.225       9.112       9.018       8.967       8.922       8.885    
        8.845       8.810       8.773       8.708       8.627       8.523       8.399       8.285       8.170       7.952    
        7.573       7.083       6.611       6.264       5.945       5.575       5.204       4.772       4.345       4.014    
        3.698       3.293       2.813       2.403       1.988       1.550       1.047      0.5999      0.2794       0.000    
   5    10.00       9.951       9.894       9.824       9.754       9.683       9.613       9.562       9.516       9.476    
        9.443       9.414       9.369       9.301       9.211       9.108       9.027       8.971       8.925       8.874    
        8.827       8.791       8.744       8.677       8.602       8.482       8.359       8.260       8.146       7.865    
        7.366       6.825       6.436       6.173       5.885       5.513       5.090       4.663       4.363       4.083    
        3.798       3.381       2.882       2.524       2.103       1.530      0.9531      0.5536      0.2785       0.000    
   6    10.00       9.939       9.872       9.817       9.751       9.677       9.618       9.572       9.524       9.488    
        9.458       9.422       9.363       9.284       9.207       9.121       9.034       8.964       8.905       8.846    
        8.805       8.766       8.723       8.652       8.541       8.426       8.334       8.227       8.034       7.628    
        7.071       6.581       6.284       6.087       5.855       5.446       4.988       4.653       4.432       4.188    
        3.913       3.537       3.043       2.598       2.077       1.463      0.8546      0.4869      0.2721       0.000    
   7    10.00       9.922       9.858       9.805       9.741       9.689       9.632       9.585       9.544       9.505    
        9.466       9.414       9.343       9.266       9.196       9.126       9.029       8.934       8.870       8.823    
        8.782       8.740       8.695       8.600       8.485       8.394       8.293       8.119       7.790       7.272    
        6.746       6.365       6.183       6.032       5.736       5.330       5.030       4.740       4.503       4.335    
        4.058       3.671       3.142       2.566       1.924       1.219      0.7164      0.4944      0.2504       0.000    
   8    10.00       9.917       9.858       9.801       9.744       9.697       9.648       9.603       9.564       9.526    
        9.469       9.393       9.319       9.252       9.186       9.098       8.983       8.894       8.845       8.800    
        8.751       8.716       8.641       8.539       8.437       8.329       8.136       7.861       7.408       6.960    
        6.571       6.273       6.136       5.952       5.617       5.306       5.058       4.846       4.658       4.461    
        4.175       3.698       3.088       2.431       1.699       1.101      0.7581      0.4850      0.2235       0.000    
   9    10.00       9.920       9.855       9.798       9.758       9.718       9.671       9.626       9.581       9.538    
        9.464       9.372       9.295       9.227       9.147       9.049       8.945       8.866       8.816       8.768    
        8.724       8.666       8.562       8.467       8.362       8.209       7.929       7.514       7.067       6.747    
        6.441       6.227       6.074       5.828       5.521       5.282       5.106       4.947       4.787       4.573    
        4.219       3.722       3.074       2.340       1.666       1.140      0.7735      0.4811      0.2386       0.000    
  10    10.00       9.919       9.852       9.806       9.770       9.731       9.690       9.650       9.598       9.529    
        9.440       9.347       9.272       9.197       9.113       8.999       8.894       8.831       8.787       8.739    
        8.694       8.598       8.486       8.381       8.234       8.003       7.583       7.135       6.786       6.546    
        6.365       6.191       5.985       5.733       5.475       5.296       5.168       5.037       4.858       4.610    
        4.230       3.686       2.992       2.338       1.804       1.306      0.8284      0.5110      0.2693       0.000    
  11    10.00       9.908       9.857       9.818       9.781       9.748       9.711       9.658       9.584       9.506    
        9.417       9.326       9.253       9.153       9.038       8.938       8.864       8.804       8.760       8.707    
        8.626       8.501       8.340       8.184       7.926       7.581       7.210       6.915       6.636       6.466    
        6.315       6.085       5.853       5.667       5.498       5.369       5.241       5.073       4.861       4.571    
        4.214       3.734       3.033       2.436       1.963       1.485      0.9550      0.5065      0.2034       0.000    
  12    10.00       9.916       9.865       9.824       9.794       9.758       9.718       9.646       9.558       9.478    
        9.394       9.303       9.205       9.083       8.988       8.903       8.825       8.775       8.718       8.636    
        8.476       8.264       8.038       7.804       7.484       7.221       7.028       6.725       6.497       6.365    
        6.205       5.991       5.809       5.655       5.546       5.430       5.278       5.088       4.836       4.532    
        4.180       3.711       3.069       2.536       2.108       1.591       1.005      0.4795      0.1595       0.000    
  13    10.00       9.935       9.887       9.843       9.804       9.763       9.703       9.615       9.523       9.444    
        9.355       9.264       9.160       9.035       8.926       8.840       8.785       8.721       8.640       8.446    
        8.154       7.896       7.651       7.359       7.110       6.993       6.755       6.480       6.366       6.257    
        6.086       5.904       5.775       5.671       5.583       5.477       5.303       5.067       4.820       4.506    
        4.157       3.680       3.017       2.519       2.122       1.557      0.9365      0.4338      0.1253       0.000    
  14    10.00       9.952       9.909       9.862       9.815       9.753       9.665       9.572       9.491       9.401    
        9.311       9.227       9.104       8.964       8.864       8.796       8.704       8.606       8.412       8.070    
        7.759       7.529       7.208       6.970       6.858       6.728       6.483       6.325       6.210       6.105    
        5.962       5.853       5.778       5.695       5.604       5.495       5.301       5.042       4.778       4.458    
        4.084       3.507       2.883       2.481       1.995       1.452      0.9234      0.3962      0.1020       0.000    
  15    10.00       9.962       9.919       9.872       9.817       9.723       9.616       9.534       9.452       9.365    
        9.298       9.199       9.037       8.883       8.792       8.671       8.547       8.422       8.095       7.694    
        7.437       7.112       6.820       6.731       6.665       6.493       6.297       6.143       6.061       5.986    
        5.902       5.841       5.785       5.716       5.621       5.487       5.263       4.969       4.691       4.396    
        3.991       3.429       2.890       2.348       1.760       1.274      0.7939      0.3491      0.1048       0.000    
  16    10.00       9.972       9.930       9.874       9.789       9.673       9.580       9.514       9.440       9.351    
        9.259       9.118       8.930       8.783       8.650       8.506       8.422       8.168       7.693       7.324    
        7.066       6.747       6.639       6.586       6.460       6.244       6.086       6.016       5.993       5.943    
        5.883       5.835       5.790       5.717       5.602       5.436       5.166       4.899       4.680       4.364    
        3.903       3.297       2.676       2.074       1.574       1.093      0.6764      0.3313      0.1117       0.000    
  17    10.00       9.972       9.927       9.854       9.748       9.633       9.555       9.494       9.411       9.311    
        9.159       8.978       8.809       8.648       8.483       8.344       8.136       7.710       7.267       7.013    
        6.760       6.566       6.481       6.359       6.161       6.001       5.961       5.955       5.942       5.900    
        5.855       5.819       5.778       5.710       5.545       5.317       5.085       4.898       4.690       4.292    
        3.674       3.056       2.463       1.871       1.346      0.8842      0.5669      0.2962      0.1217       0.000    
  18    10.00       9.965       9.913       9.825       9.693       9.600       9.538       9.455       9.360       9.221    
        9.036       8.875       8.705       8.487       8.270       8.040       7.736       7.304       6.974       6.752    
        6.547       6.385       6.256       6.081       5.947       5.907       5.897       5.896       5.876       5.846    
        5.821       5.795       5.748       5.632       5.460       5.266       5.072       4.905       4.613       4.080    
        3.448       2.789       2.154       1.668       1.249      0.8289      0.4869      0.2450      0.1174       0.000    
  19    10.00       9.957       9.899       9.772       9.640       9.585       9.517       9.414       9.297       9.146    
        8.978       8.826       8.579       8.248       7.990       7.754       7.386       6.993       6.772       6.602    
        6.390       6.193       6.052       5.918       5.853       5.840       5.836       5.819       5.792       5.784    
        5.773       5.752       5.683       5.572       5.427       5.241       5.065       4.823       4.323       3.768    
        3.257       2.574       1.970       1.584       1.168      0.7480      0.4397      0.2495      0.1278       0.000    
  20    10.00       9.948       9.851       9.720       9.624       9.564       9.490       9.380       9.249       9.112    
        8.939       8.707       8.337       8.009       7.780       7.487       7.123       6.909       6.707       6.470    
        6.238       6.062       5.915       5.821       5.774       5.751       5.722       5.716       5.703       5.710    
        5.712       5.693       5.622       5.519       5.371       5.210       4.991       4.549       4.006       3.562    
        3.006       2.376       1.923       1.549       1.130      0.6639      0.3841      0.2597      0.1338       0.000    
  21    10.00       9.914       9.810       9.700       9.606       9.543       9.463       9.334       9.204       9.074    
        8.842       8.488       8.111       7.864       7.607       7.300       7.030       6.827       6.584       6.334    
        6.112       5.939       5.811       5.712       5.646       5.597       5.581       5.590       5.594       5.611    
        5.630       5.603       5.532       5.435       5.288       5.110       4.767       4.300       3.870       3.329    
        2.801       2.304       1.921       1.543      0.9517      0.5377      0.3888      0.2934      0.1407       0.000    
  22    10.00       9.891       9.767       9.668       9.594       9.518       9.405       9.285       9.170       8.991    
        8.693       8.292       7.993       7.769       7.482       7.167       6.908       6.694       6.472       6.236    
        6.015       5.832       5.661       5.508       5.422       5.403       5.421       5.436       5.474       5.499    
        5.522       5.492       5.433       5.333       5.185       5.008       4.657       4.207       3.644       3.120    
        2.737       2.339       1.879       1.245      0.7427      0.5361      0.4076      0.2714      0.1004       0.000    
  23    10.00       9.859       9.738       9.660       9.581       9.469       9.345       9.255       9.110       8.885    
        8.536       8.194       7.978       7.699       7.326       7.013       6.810       6.636       6.429       6.174    
        5.942       5.728       5.483       5.195       4.986       5.029       5.166       5.255       5.336       5.391    
        5.413       5.398       5.344       5.250       5.111       4.912       4.557       4.000       3.435       3.064    
        2.712       2.210       1.549       1.004      0.7310      0.5468      0.3912      0.2308      9.1863E-02   0.000    
  24    10.00       9.837       9.750       9.657       9.544       9.426       9.331       9.232       9.091       8.793    
        8.466       8.213       7.970       7.598       7.189       6.964       6.793       6.622       6.386       6.147    
        5.940       5.669       5.276       4.731       4.066       4.338       4.744       5.027       5.195       5.282    
        5.325       5.316       5.274       5.171       5.015       4.764       4.314       3.786       3.361       2.976    
        2.542       1.982       1.391      0.9738      0.7325      0.5328      0.3570      0.2501      0.1228       0.000    
  25    10.00       9.856       9.766       9.649       9.531       9.423       9.328       9.237       9.027       8.737    
        8.485       8.230       7.911       7.503       7.200       6.998       6.804       6.598       6.383       6.177    
        5.939       5.680       5.119       4.082       2.237       3.610       4.355       4.798       5.073       5.216    
        5.267       5.264       5.212       5.070       4.856       4.512       4.086       3.671       3.307       2.855    
        2.332       1.797       1.297      0.9654      0.7594      0.5538      0.3762      0.2620      0.1631       0.000    
  26    10.00       9.875       9.787       9.664       9.538       9.440       9.339       9.204       8.996       8.794    
        8.559       8.209       7.820       7.489       7.260       7.063       6.838       6.585       6.377       6.204    
        6.007       5.750       5.266       4.503       3.658       4.013       4.463       4.794       5.049       5.202    
        5.243       5.227       5.141       4.969       4.731       4.402       3.932       3.536       3.194       2.646    
        2.053       1.583       1.285       1.054      0.8189      0.5979      0.4101      0.2846      0.1663       0.000    
  27    10.00       9.900       9.792       9.681       9.572       9.456       9.343       9.207       9.036       8.852    
        8.555       8.162       7.820       7.546       7.353       7.127       6.834       6.570       6.408       6.266    
        6.112       5.875       5.507       5.057       4.601       4.571       4.743       4.955       5.142       5.231    
        5.239       5.207       5.104       4.915       4.636       4.190       3.745       3.417       2.897       2.317    
        1.856       1.554       1.329       1.127      0.8953      0.6526      0.4455      0.3133      0.1977       0.000    
  28    10.00       9.907       9.818       9.718       9.611       9.488       9.363       9.232       9.083       8.868    
        8.521       8.179       7.882       7.613       7.409       7.188       6.948       6.693       6.464       6.317    
        6.194       6.025       5.788       5.461       5.182       5.018       5.053       5.188       5.252       5.273    
        5.251       5.195       5.067       4.824       4.453       3.989       3.603       3.140       2.595       2.183    
        1.854       1.597       1.377       1.167      0.9407      0.7121      0.5055      0.3568      0.2039       0.000    
  29    10.00       9.914       9.827       9.747       9.643       9.532       9.411       9.276       9.113       8.826    
        8.503       8.213       7.931       7.705       7.472       7.238       7.020       6.816       6.596       6.402    
        6.270       6.140       5.983       5.788       5.523       5.393       5.377       5.383       5.385       5.341    
        5.273       5.161       5.005       4.691       4.233       3.820       3.426       2.941       2.504       2.202    
        1.934       1.653       1.403       1.202      0.9979      0.7532      0.5342      0.3729      0.2068       0.000    
  30    10.00       9.925       9.853       9.784       9.690       9.581       9.472       9.318       9.100       8.839    
        8.513       8.199       7.969       7.743       7.523       7.311       7.136       6.947       6.732       6.527    
        6.364       6.254       6.121       5.989       5.845       5.726       5.684       5.590       5.526       5.422    
        5.279       5.086       4.860       4.525       4.163       3.773       3.351       2.895       2.563       2.287    
        1.969       1.686       1.469       1.239      0.9965      0.7797      0.5695      0.3961      0.2226       0.000    
  31    10.00       9.941       9.881       9.815       9.746       9.658       9.534       9.344       9.096       8.821    
        8.508       8.228       8.017       7.797       7.593       7.398       7.224       7.076       6.861       6.655    
        6.506       6.388       6.284       6.181       6.106       5.996       5.877       5.772       5.636       5.472    
        5.243       4.990       4.755       4.480       4.132       3.717       3.288       2.913       2.677       2.414    
        2.061       1.750       1.503       1.269       1.043      0.8205      0.6036      0.4169      0.2159       0.000    
  32    10.00       9.949       9.906       9.849       9.783       9.700       9.569       9.351       9.126       8.866    
        8.544       8.284       8.086       7.860       7.644       7.485       7.333       7.159       6.986       6.784    
        6.630       6.506       6.412       6.324       6.236       6.148       6.008       5.873       5.703       5.476    
        5.208       4.952       4.705       4.438       4.094       3.720       3.383       3.062       2.792       2.491    
        2.165       1.857       1.596       1.327       1.081      0.8925      0.6659      0.4092      0.1827       0.000    
  33    10.00       9.957       9.923       9.875       9.808       9.720       9.549       9.336       9.154       8.922    
        8.628       8.382       8.149       7.897       7.707       7.573       7.441       7.262       7.072       6.900    
        6.729       6.603       6.488       6.390       6.312       6.224       6.080       5.895       5.714       5.495    
        5.225       4.990       4.729       4.397       4.075       3.741       3.467       3.214       2.908       2.576    
        2.293       2.002       1.715       1.437       1.178      0.9669      0.7128      0.4114      0.1789       0.000    
  34    10.00       9.964       9.939       9.898       9.811       9.682       9.525       9.377       9.189       8.961    
        8.711       8.445       8.185       7.939       7.783       7.673       7.531       7.361       7.148       6.982    
        6.829       6.672       6.548       6.451       6.373       6.262       6.095       5.918       5.723       5.468    
        5.230       5.035       4.780       4.458       4.134       3.825       3.565       3.314       2.997       2.696    
        2.443       2.162       1.848       1.571       1.308       1.066      0.7627      0.4631      0.2428       0.000    
  35    10.00       9.970       9.939       9.881       9.775       9.649       9.537       9.410       9.259       9.013    
        8.741       8.476       8.215       8.012       7.872       7.756       7.606       7.427       7.222       7.025    
        6.873       6.727       6.601       6.508       6.421       6.308       6.124       5.913       5.683       5.418    
        5.236       5.036       4.774       4.537       4.265       3.939       3.650       3.438       3.137       2.815    
        2.570       2.283       1.968       1.695       1.422       1.156      0.8743      0.5795      0.2867       0.000    
  36    10.00       9.964       9.914       9.851       9.753       9.636       9.543       9.434       9.272       9.037    
        8.742       8.464       8.278       8.122       7.984       7.837       7.661       7.480       7.265       7.014    
        6.848       6.737       6.626       6.548       6.459       6.318       6.113       5.880       5.599       5.356    
        5.198       5.034       4.806       4.577       4.348       4.056       3.767       3.541       3.272       2.920    
        2.651       2.331       2.016       1.808       1.542       1.247      0.9645      0.6564      0.3211       0.000    
  37    10.00       9.945       9.892       9.830       9.734       9.632       9.527       9.424       9.276       9.004    
        8.698       8.485       8.375       8.226       8.055       7.910       7.697       7.475       7.207       6.954    
        6.838       6.745       6.638       6.553       6.451       6.280       6.072       5.771       5.511       5.348    
        5.207       5.030       4.805       4.623       4.390       4.113       3.887       3.669       3.367       2.980    
        2.627       2.327       2.108       1.892       1.626       1.345       1.063      0.7239      0.3975       0.000    
  38    10.00       9.937       9.871       9.805       9.721       9.625       9.515       9.403       9.235       8.980    
        8.752       8.582       8.442       8.307       8.126       7.893       7.656       7.403       7.106       6.932    
        6.839       6.719       6.612       6.540       6.426       6.231       5.926       5.641       5.501       5.375    
        5.226       5.038       4.834       4.653       4.424       4.172       3.986       3.765       3.379       2.953    
        2.647       2.396       2.179       1.955       1.720       1.435       1.154      0.8372      0.4137       0.000    
  39    10.00       9.920       9.855       9.796       9.716       9.608       9.491       9.377       9.219       9.011    
        8.833       8.703       8.546       8.363       8.107       7.820       7.554       7.260       7.047       6.932    
        6.796       6.658       6.577       6.507       6.398       6.140       5.829       5.653       5.524       5.394    
        5.226       5.047       4.850       4.668       4.495       4.288       4.043       3.775       3.395       2.998    
        2.675       2.415       2.244       2.057       1.792       1.510       1.224      0.8713      0.4083       0.000    
  40    10.00       9.912       9.850       9.790       9.708       9.597       9.484       9.370       9.230       9.058    
        8.911       8.798       8.608       8.329       8.011       7.724       7.442       7.189       7.032       6.893    
        6.736       6.615       6.544       6.460       6.313       6.084       5.871       5.693       5.547       5.412    
        5.248       5.055       4.868       4.716       4.564       4.354       4.072       3.791       3.404       2.979    
        2.676       2.471       2.282       2.122       1.844       1.535       1.274      0.8737      0.4068       0.000    
  41    10.00       9.920       9.848       9.777       9.689       9.601       9.507       9.402       9.263       9.107    
        8.967       8.831       8.592       8.263       7.935       7.666       7.389       7.146       6.993       6.843    
        6.686       6.579       6.502       6.402       6.249       6.075       5.931       5.758       5.576       5.417    
        5.259       5.084       4.905       4.773       4.611       4.401       4.119       3.731       3.288       2.960    
        2.740       2.541       2.346       2.124       1.834       1.538       1.315      0.9308      0.4220       0.000    
  42    10.00       9.920       9.839       9.776       9.712       9.631       9.530       9.411       9.294       9.174    
        8.998       8.768       8.490       8.178       7.874       7.627       7.357       7.120       6.955       6.786    
        6.640       6.545       6.461       6.369       6.230       6.107       5.985       5.789       5.585       5.442    
        5.312       5.121       4.929       4.800       4.650       4.426       4.080       3.622       3.216       2.972    
        2.806       2.628       2.380       2.084       1.806       1.575       1.343      0.9817      0.4843       0.000    
  43    10.00       9.913       9.845       9.791       9.740       9.663       9.564       9.451       9.321       9.138    
        8.913       8.678       8.417       8.092       7.818       7.591       7.348       7.109       6.902       6.744    
        6.611       6.517       6.444       6.368       6.249       6.122       5.998       5.796       5.618       5.512    
        5.354       5.147       4.962       4.829       4.654       4.364       3.964       3.530       3.234       3.047    
        2.870       2.666       2.361       2.057       1.811       1.589       1.389      0.9955      0.4549       0.000    
  44    10.00       9.913       9.854       9.805       9.744       9.686       9.605       9.455       9.264       9.054    
        8.866       8.627       8.313       8.041       7.822       7.561       7.295       7.045       6.839       6.700    
        6.603       6.521       6.446       6.368       6.265       6.135       5.967       5.800       5.679       5.552    
        5.411       5.230       5.018       4.816       4.602       4.278       3.858       3.501       3.272       3.091    
        2.913       2.671       2.377       2.113       1.850       1.611       1.366      0.8987      0.4133       0.000    
  45    10.00       9.923       9.867       9.805       9.745       9.695       9.563       9.386       9.194       9.013    
        8.858       8.540       8.214       8.016       7.781       7.492       7.204       6.972       6.805       6.694    
        6.619       6.542       6.460       6.367       6.253       6.126       5.984       5.855       5.749       5.617    
        5.453       5.266       5.047       4.792       4.537       4.188       3.793       3.512       3.338       3.151    
        2.914       2.637       2.384       2.144       1.912       1.673       1.276      0.7987      0.4020       0.000    
  46    10.00       9.937       9.879       9.805       9.737       9.638       9.495       9.362       9.200       9.006    
        8.750       8.448       8.187       7.935       7.686       7.406       7.138       6.967       6.829       6.723    
        6.647       6.572       6.468       6.352       6.242       6.134       6.022       5.904       5.797       5.680    
        5.533       5.336       5.087       4.785       4.420       4.057       3.765       3.566       3.384       3.190    
        2.909       2.614       2.363       2.173       1.950       1.640       1.188      0.7629      0.3761       0.000    
  47    10.00       9.949       9.893       9.821       9.704       9.574       9.452       9.347       9.199       8.944    
        8.636       8.359       8.133       7.923       7.657       7.353       7.117       6.954       6.844       6.755    
        6.673       6.585       6.477       6.354       6.247       6.162       6.069       5.951       5.829       5.715    
        5.586       5.421       5.091       4.667       4.311       4.050       3.805       3.634       3.473       3.204    
        2.862       2.549       2.322       2.191       1.944       1.564       1.123      0.7360      0.3718       0.000    
  48    10.00       9.954       9.897       9.789       9.669       9.557       9.434       9.328       9.178       8.891    
        8.555       8.323       8.137       7.880       7.571       7.297       7.119       6.955       6.846       6.776    
        6.693       6.588       6.471       6.359       6.270       6.202       6.119       5.989       5.847       5.724    
        5.589       5.391       5.048       4.695       4.378       4.090       3.871       3.696       3.490       3.148    
        2.781       2.540       2.359       2.126       1.803       1.466       1.088      0.7413      0.3925       0.000    
  49    10.00       9.952       9.865       9.761       9.671       9.551       9.431       9.319       9.130       8.826    
        8.526       8.304       8.072       7.812       7.578       7.323       7.075       6.923       6.856       6.791    
        6.713       6.591       6.456       6.358       6.291       6.240       6.145       5.995       5.846       5.734    
        5.588       5.327       5.024       4.775       4.508       4.191       3.909       3.692       3.450       3.083    
        2.787       2.576       2.326       1.991       1.704       1.401       1.070      0.7535      0.3838       0.000    
  50    10.00       9.940       9.844       9.749       9.676       9.564       9.431       9.289       9.085       8.844    
        8.541       8.243       8.002       7.794       7.607       7.320       7.039       6.923       6.865       6.802    
        6.726       6.589       6.445       6.356       6.302       6.256       6.150       5.989       5.846       5.732    
        5.572       5.298       5.065       4.851       4.563       4.247       3.961       3.674       3.325       3.001    
        2.844       2.621       2.257       1.920       1.679       1.390       1.103      0.7360      0.3023       0.000    

 HEAD WILL BE SAVED ON UNIT   51 AT END OF TIME STEP  61, STRESS PERIOD    2

 DRAWDOWN WILL BE SAVED ON UNIT   52 AT END OF TIME STEP  61, STRESS PERIOD    2
1
  VOLUMETRIC BUDGET FOR ENTIRE MODEL AT END OF TIME STEP 61 IN STRESS PERIOD   2
  ------------------------------------------------------------------------------

     CUMULATIVE VOLUMES      L**3       RATES FOR THIS TIME STEP      L**3/T
     ------------------                 ------------------------

           IN:                                      IN:
           ---                                      ---
             STORAGE =       29376.9297               STORAGE =         438.9353
       CONSTANT HEAD =       34559.3867         CONSTANT HEAD =         597.9634
               WELLS =           0.0000                 WELLS =           0.0000

            TOTAL IN =       63936.3164              TOTAL IN =        1036.8987

          OUT:                                     OUT:
          ----                                     ----
             STORAGE =       9.3745E-03               STORAGE =           0.0000
       CONSTANT HEAD =       33436.2930         CONSTANT HEAD =         536.8983
               WELLS =       30500.0000                 WELLS =         500.0000

           TOTAL OUT =       63936.3008             TOTAL OUT =        1036.8983

            IN - OUT =       1.5625E-02              IN - OUT =       3.6621E-04

 PERCENT DISCREPANCY =           0.00     PERCENT DISCREPANCY =           0.00






          TIME SUMMARY AT END OF TIME STEP  61 IN STRESS PERIOD    2
                    SECONDS     MINUTES      HOURS       DAYS        YEARS
                    -----------------------------------------------------------
   TIME STEP LENGTH  86400.      1440.0      24.000      1.0000     2.73785E-03
 STRESS PERIOD TIME 5.27040E+06  87840.      1464.0      61.000     0.16701    
         TOTAL TIME 5.35680E+06  89280.      1488.0      62.000     0.16975    
1
 
 SOLVING FOR HEAD 

 OUTPUT CONTROL FOR STRESS PERIOD    2   TIME STEP  62
    SAVE HEAD FOR ALL LAYERS
    SAVE DRAWDOWN FOR ALL LAYERS
    SAVE BUDGET
    PRINT HEAD FOR ALL LAYERS
    PRINT BUDGET
 UBDSV1 SAVING "         STORAGE" ON UNIT  53 AT TIME STEP 62, STRESS PERIOD   2
 UBDSV2 SAVING "   CONSTANT HEAD" ON UNIT  53 AT TIME STEP 62, STRESS PERIOD   2
 UBDSV1 SAVING "FLOW RIGHT FACE " ON UNIT  53 AT TIME STEP 62, STRESS PERIOD   2
 UBDSV1 SAVING "FLOW FRONT FACE " ON UNIT  53 AT TIME STEP 62, STRESS PERIOD   2
1
              HEAD IN LAYER   1 AT END OF TIME STEP  62 IN STRESS PERIOD    2
  ---------------------------------------------------------------------------

            1           2           3           4           5           6           7           8           9          10
           11          12          13          14          15          16          17          18          19          20
           21          22          23          24          25          26          27          28          29          30
           31          32          33          34          35          36          37          38          39          40
           41          42          43          44          45          46          47          48          49          50
 ........................................................................................................................
   1    10.00       9.955       9.893       9.832       9.781       9.719       9.658       9.594       9.507       9.437    
        9.396       9.354       9.308       9.262       9.189       9.108       9.020       8.952       8.921       8.887    
        8.845       8.809       8.773       8.727       8.663       8.553       8.419       8.290       8.142       7.994    
        7.785       7.452       7.060       6.647       6.184       5.757       5.394       5.058       4.599       4.099    
        3.675       3.256       2.678       2.129       1.745       1.360       1.037      0.8287      0.5496       0.000    
   2    10.00       9.955       9.899       9.838       9.783       9.726       9.658       9.574       9.491       9.437    
        9.400       9.362       9.327       9.270       9.185       9.102       9.022       8.955       8.921       8.883    
        8.840       8.813       8.784       8.735       8.662       8.556       8.422       8.287       8.148       8.001    
        7.774       7.431       7.018       6.552       6.084       5.672       5.348       5.018       4.552       4.084    
        3.655       3.152       2.630       2.196       1.815       1.456       1.088      0.7870      0.4202       0.000    
   3    10.00       9.950       9.897       9.841       9.786       9.719       9.635       9.555       9.502       9.453    
        9.410       9.377       9.342       9.288       9.204       9.100       9.015       8.960       8.918       8.880    
        8.844       8.815       8.785       8.724       8.645       8.538       8.411       8.309       8.162       7.988    
        7.695       7.296       6.855       6.402       5.973       5.590       5.301       4.961       4.456       4.000    
        3.644       3.186       2.706       2.290       1.895       1.533       1.097      0.6752      0.2970       0.000    
   4    10.00       9.954       9.900       9.839       9.771       9.694       9.613       9.554       9.509       9.462    
        9.425       9.397       9.359       9.300       9.223       9.109       9.015       8.963       8.919       8.882    
        8.842       8.807       8.769       8.704       8.624       8.520       8.395       8.281       8.166       7.948    
        7.569       7.079       6.607       6.260       5.941       5.571       5.201       4.768       4.342       4.011    
        3.695       3.290       2.811       2.401       1.986       1.549       1.047      0.5995      0.2792       0.000    
   5    10.00       9.951       9.894       9.824       9.753       9.682       9.611       9.561       9.514       9.474    
        9.441       9.412       9.367       9.299       9.208       9.105       9.024       8.968       8.921       8.870    
        8.823       8.787       8.740       8.674       8.598       8.478       8.355       8.256       8.141       7.860    
        7.361       6.820       6.431       6.168       5.881       5.508       5.086       4.659       4.359       4.079    
        3.795       3.379       2.880       2.522       2.101       1.529      0.9524      0.5533      0.2783       0.000    
   6    10.00       9.939       9.871       9.816       9.750       9.676       9.616       9.571       9.523       9.486    
        9.456       9.420       9.361       9.282       9.204       9.118       9.031       8.961       8.901       8.843    
        8.801       8.762       8.719       8.648       8.537       8.422       8.330       8.223       8.029       7.623    
        7.066       6.575       6.278       6.082       5.850       5.441       4.983       4.648       4.428       4.184    
        3.910       3.534       3.041       2.596       2.075       1.462      0.8541      0.4866      0.2719       0.000    
   7    10.00       9.921       9.858       9.804       9.741       9.687       9.631       9.583       9.543       9.503    
        9.464       9.412       9.341       9.264       9.194       9.123       9.026       8.930       8.867       8.819    
        8.778       8.736       8.691       8.596       8.481       8.389       8.288       8.114       7.784       7.267    
        6.740       6.359       6.176       6.026       5.730       5.324       5.024       4.735       4.498       4.331    
        4.054       3.667       3.140       2.565       1.923       1.218      0.7159      0.4941      0.2502       0.000    
   8    10.00       9.916       9.858       9.800       9.743       9.696       9.647       9.602       9.562       9.524    
        9.467       9.391       9.317       9.249       9.183       9.095       8.979       8.890       8.841       8.796    
        8.747       8.712       8.637       8.534       8.432       8.324       8.131       7.855       7.401       6.954    
        6.564       6.266       6.130       5.945       5.610       5.299       5.052       4.841       4.653       4.456    
        4.171       3.694       3.085       2.429       1.697       1.100      0.7576      0.4847      0.2233       0.000    
   9    10.00       9.920       9.854       9.798       9.757       9.717       9.670       9.624       9.580       9.536    
        9.462       9.370       9.293       9.224       9.144       9.046       8.941       8.862       8.812       8.764    
        8.720       8.662       8.558       8.462       8.356       8.203       7.923       7.507       7.059       6.739    
        6.434       6.219       6.067       5.821       5.514       5.275       5.100       4.941       4.782       4.568    
        4.215       3.718       3.071       2.339       1.665       1.139      0.7730      0.4808      0.2384       0.000    
  10    10.00       9.919       9.851       9.805       9.769       9.730       9.689       9.649       9.597       9.527    
        9.438       9.345       9.269       9.194       9.110       8.995       8.890       8.827       8.783       8.734    
        8.689       8.593       8.481       8.376       8.228       7.997       7.576       7.127       6.778       6.538    
        6.357       6.183       5.977       5.726       5.468       5.290       5.161       5.030       4.852       4.605    
        4.225       3.682       2.990       2.336       1.803       1.305      0.8279      0.5107      0.2691       0.000    
  11    10.00       9.908       9.856       9.817       9.781       9.747       9.710       9.657       9.582       9.504    
        9.415       9.324       9.251       9.150       9.034       8.934       8.860       8.800       8.756       8.703    
        8.621       8.496       8.335       8.178       7.919       7.574       7.201       6.906       6.628       6.457    
        6.306       6.077       5.845       5.659       5.490       5.361       5.234       5.066       4.855       4.566    
        4.210       3.730       3.030       2.434       1.962       1.484      0.9544      0.5062      0.2033       0.000    
  12    10.00       9.916       9.865       9.824       9.793       9.757       9.716       9.645       9.556       9.476    
        9.391       9.300       9.202       9.080       8.985       8.899       8.820       8.771       8.713       8.631    
        8.471       8.258       8.031       7.796       7.475       7.211       7.019       6.715       6.488       6.356    
        6.196       5.982       5.801       5.646       5.538       5.422       5.271       5.081       4.830       4.526    
        4.175       3.707       3.066       2.534       2.106       1.590       1.005      0.4793      0.1594       0.000    
  13    10.00       9.934       9.887       9.843       9.803       9.762       9.702       9.613       9.521       9.442    
        9.352       9.261       9.157       9.031       8.922       8.836       8.780       8.716       8.635       8.440    
        8.147       7.888       7.643       7.349       7.100       6.983       6.744       6.470       6.355       6.247    
        6.076       5.894       5.766       5.662       5.575       5.468       5.296       5.060       4.813       4.501    
        4.152       3.676       3.014       2.517       2.121       1.556      0.9360      0.4336      0.1253       0.000    
  14    10.00       9.952       9.909       9.862       9.815       9.752       9.664       9.571       9.488       9.398    
        9.309       9.224       9.100       8.959       8.860       8.791       8.699       8.601       8.406       8.063    
        7.750       7.520       7.198       6.959       6.847       6.717       6.471       6.314       6.199       6.094    
        5.952       5.842       5.767       5.686       5.595       5.487       5.293       5.035       4.771       4.453    
        4.079       3.504       2.881       2.479       1.994       1.451      0.9229      0.3960      0.1019       0.000    
  15    10.00       9.962       9.918       9.871       9.816       9.722       9.614       9.532       9.450       9.363    
        9.295       9.195       9.032       8.879       8.787       8.665       8.541       8.415       8.087       7.685    
        7.427       7.101       6.808       6.720       6.653       6.481       6.285       6.131       6.049       5.974    
        5.891       5.830       5.774       5.706       5.611       5.478       5.255       4.961       4.684       4.390    
        3.986       3.425       2.887       2.346       1.759       1.273      0.7935      0.3489      0.1047       0.000    
  16    10.00       9.972       9.929       9.873       9.788       9.672       9.578       9.512       9.438       9.348    
        9.256       9.114       8.925       8.777       8.644       8.500       8.415       8.160       7.683       7.313    
        7.054       6.734       6.627       6.574       6.448       6.231       6.074       6.003       5.980       5.931    
        5.871       5.823       5.778       5.706       5.592       5.426       5.158       4.891       4.673       4.358    
        3.898       3.293       2.674       2.072       1.573       1.092      0.6760      0.3311      0.1117       0.000    
  17    10.00       9.972       9.927       9.853       9.747       9.631       9.552       9.491       9.408       9.308    
        9.155       8.973       8.803       8.641       8.476       8.337       8.128       7.700       7.256       7.001    
        6.748       6.553       6.468       6.346       6.148       5.988       5.947       5.942       5.929       5.888    
        5.843       5.807       5.767       5.699       5.534       5.307       5.077       4.889       4.682       4.285    
        3.670       3.053       2.460       1.870       1.345      0.8837      0.5665      0.2960      0.1216       0.000    
  18    10.00       9.965       9.913       9.824       9.691       9.598       9.536       9.452       9.357       9.217    
        9.031       8.870       8.698       8.480       8.262       8.031       7.726       7.293       6.962       6.739    
        6.534       6.371       6.243       6.067       5.933       5.893       5.884       5.883       5.863       5.833    
        5.809       5.783       5.736       5.621       5.449       5.256       5.063       4.896       4.606       4.074    
        3.444       2.786       2.152       1.667       1.248      0.8284      0.4866      0.2448      0.1173       0.000    
  19    10.00       9.957       9.899       9.771       9.638       9.583       9.514       9.411       9.293       9.142    
        8.972       8.820       8.571       8.240       7.981       7.744       7.375       6.981       6.759       6.588    
        6.377       6.179       6.038       5.904       5.839       5.826       5.822       5.805       5.778       5.771    
        5.760       5.739       5.671       5.560       5.416       5.231       5.056       4.815       4.316       3.763    
        3.253       2.572       1.968       1.583       1.167      0.7475      0.4394      0.2493      0.1277       0.000    
  20    10.00       9.948       9.850       9.718       9.622       9.562       9.487       9.377       9.245       9.108    
        8.933       8.701       8.329       8.000       7.769       7.476       7.111       6.896       6.694       6.457    
        6.224       6.048       5.901       5.807       5.760       5.737       5.708       5.702       5.689       5.697    
        5.698       5.680       5.609       5.507       5.360       5.200       4.982       4.541       4.000       3.557    
        3.002       2.373       1.921       1.548       1.129      0.6634      0.3839      0.2596      0.1338       0.000    
  21    10.00       9.913       9.809       9.698       9.604       9.541       9.460       9.330       9.200       9.069    
        8.836       8.480       8.102       7.853       7.596       7.288       7.017       6.814       6.571       6.320    
        6.098       5.925       5.797       5.698       5.632       5.582       5.566       5.576       5.580       5.597    
        5.616       5.590       5.519       5.423       5.276       5.100       4.758       4.293       3.864       3.325    
        2.798       2.302       1.920       1.542      0.9511      0.5374      0.3886      0.2932      0.1406       0.000    
  22    10.00       9.891       9.765       9.667       9.591       9.516       9.401       9.281       9.166       8.985    
        8.686       8.283       7.983       7.758       7.470       7.154       6.895       6.680       6.458       6.222    
        6.001       5.818       5.647       5.494       5.407       5.388       5.406       5.421       5.460       5.484    
        5.507       5.478       5.420       5.320       5.173       4.997       4.648       4.200       3.639       3.116    
        2.734       2.337       1.877       1.244      0.7423      0.5358      0.4074      0.2713      0.1003       0.000    
  23    10.00       9.859       9.736       9.658       9.579       9.466       9.341       9.251       9.105       8.879    
        8.528       8.184       7.968       7.688       7.314       7.001       6.797       6.623       6.415       6.160    
        5.928       5.714       5.468       5.181       4.971       5.014       5.151       5.240       5.321       5.376    
        5.398       5.383       5.330       5.237       5.099       4.901       4.548       3.994       3.430       3.061    
        2.709       2.208       1.547       1.003      0.7306      0.5465      0.3910      0.2307      9.1821E-02   0.000    
  24    10.00       9.836       9.748       9.655       9.541       9.423       9.327       9.227       9.086       8.787    
        8.458       8.204       7.960       7.587       7.177       6.951       6.780       6.608       6.372       6.133    
        5.926       5.655       5.261       4.716       4.051       4.323       4.729       5.012       5.179       5.266    
        5.310       5.301       5.260       5.158       5.003       4.754       4.306       3.780       3.357       2.973    
        2.540       1.981       1.390      0.9733      0.7322      0.5326      0.3568      0.2500      0.1227       0.000    
  25    10.00       9.855       9.764       9.647       9.528       9.420       9.324       9.232       9.021       8.730    
        8.477       8.221       7.901       7.491       7.187       6.985       6.791       6.585       6.369       6.163    
        5.925       5.665       5.104       4.066       2.220       3.594       4.339       4.783       5.057       5.200    
        5.252       5.249       5.198       5.057       4.844       4.502       4.078       3.665       3.303       2.852    
        2.330       1.795       1.297      0.9649      0.7591      0.5535      0.3760      0.2619      0.1630       0.000    
  26    10.00       9.874       9.786       9.662       9.535       9.437       9.335       9.199       8.991       8.788    
        8.551       8.200       7.809       7.478       7.248       7.051       6.825       6.571       6.363       6.190    
        5.993       5.736       5.251       4.488       3.642       3.997       4.447       4.778       5.033       5.187    
        5.228       5.213       5.127       4.956       4.720       4.393       3.925       3.531       3.190       2.643    
        2.051       1.582       1.284       1.054      0.8186      0.5976      0.4099      0.2845      0.1662       0.000    
  27    10.00       9.900       9.791       9.680       9.570       9.453       9.340       9.203       9.031       8.846    
        8.547       8.153       7.810       7.535       7.342       7.115       6.821       6.557       6.394       6.253    
        6.097       5.861       5.493       5.042       4.586       4.555       4.727       4.939       5.126       5.215    
        5.224       5.192       5.090       4.903       4.626       4.182       3.739       3.413       2.893       2.315    
        1.855       1.553       1.329       1.127      0.8949      0.6523      0.4453      0.3132      0.1976       0.000    
  28    10.00       9.906       9.817       9.716       9.608       9.485       9.360       9.227       9.078       8.862    
        8.514       8.170       7.872       7.602       7.397       7.176       6.936       6.680       6.450       6.303    
        6.180       6.011       5.773       5.446       5.167       5.003       5.038       5.172       5.236       5.258    
        5.236       5.181       5.054       4.813       4.444       3.982       3.597       3.136       2.593       2.181    
        1.852       1.596       1.377       1.166      0.9403      0.7118      0.5053      0.3566      0.2038       0.000    
  29    10.00       9.913       9.826       9.746       9.641       9.530       9.407       9.272       9.108       8.820    
        8.495       8.204       7.921       7.695       7.461       7.226       7.008       6.803       6.582       6.389    
        6.256       6.126       5.969       5.774       5.508       5.378       5.362       5.368       5.369       5.327    
        5.259       5.148       4.993       4.681       4.226       3.814       3.422       2.938       2.502       2.200    
        1.932       1.652       1.403       1.201      0.9975      0.7530      0.5340      0.3727      0.2067       0.000    
  30    10.00       9.925       9.852       9.783       9.688       9.579       9.469       9.315       9.096       8.834    
        8.506       8.191       7.960       7.733       7.513       7.300       7.124       6.934       6.719       6.514    
        6.350       6.240       6.107       5.974       5.830       5.712       5.669       5.576       5.511       5.408    
        5.266       5.074       4.850       4.518       4.157       3.768       3.347       2.892       2.561       2.285    
        1.967       1.685       1.469       1.239      0.9961      0.7794      0.5693      0.3959      0.2225       0.000    
  31    10.00       9.940       9.881       9.814       9.744       9.656       9.532       9.341       9.092       8.815    
        8.501       8.219       8.008       7.787       7.583       7.387       7.212       7.064       6.848       6.642    
        6.493       6.375       6.270       6.168       6.092       5.982       5.863       5.758       5.623       5.460    
        5.231       4.981       4.747       4.473       4.126       3.713       3.285       2.910       2.675       2.413    
        2.060       1.749       1.502       1.269       1.043      0.8202      0.6035      0.4168      0.2158       0.000    
  32    10.00       9.948       9.906       9.848       9.782       9.699       9.566       9.348       9.122       8.861    
        8.537       8.277       8.078       7.851       7.635       7.475       7.323       7.147       6.975       6.772    
        6.618       6.493       6.399       6.311       6.224       6.135       5.995       5.860       5.691       5.465    
        5.199       4.944       4.698       4.432       4.090       3.716       3.380       3.060       2.790       2.490    
        2.164       1.857       1.595       1.327       1.081      0.8923      0.6657      0.4091      0.1827       0.000    
  33    10.00       9.957       9.923       9.874       9.807       9.718       9.547       9.333       9.150       8.917    
        8.621       8.375       8.141       7.888       7.698       7.563       7.431       7.252       7.061       6.888    
        6.717       6.591       6.476       6.378       6.300       6.212       6.068       5.884       5.704       5.486    
        5.217       4.983       4.723       4.392       4.071       3.738       3.464       3.212       2.906       2.575    
        2.292       2.001       1.714       1.436       1.178      0.9666      0.7126      0.4113      0.1788       0.000    
  34    10.00       9.964       9.939       9.898       9.810       9.680       9.523       9.375       9.186       8.956    
        8.705       8.438       8.178       7.931       7.775       7.664       7.522       7.351       7.138       6.971    
        6.818       6.661       6.537       6.440       6.361       6.251       6.085       5.908       5.714       5.460    
        5.223       5.029       4.775       4.453       4.131       3.822       3.563       3.313       2.996       2.695    
        2.442       2.162       1.848       1.570       1.308       1.066      0.7626      0.4630      0.2428       0.000    
  35    10.00       9.970       9.939       9.881       9.774       9.648       9.535       9.407       9.256       9.009    
        8.735       8.470       8.208       8.004       7.864       7.748       7.597       7.417       7.212       7.015    
        6.864       6.718       6.591       6.498       6.411       6.298       6.115       5.904       5.675       5.412    
        5.231       5.031       4.771       4.534       4.263       3.937       3.648       3.437       3.136       2.814    
        2.569       2.282       1.968       1.695       1.422       1.156      0.8742      0.5794      0.2866       0.000    
  36    10.00       9.964       9.914       9.851       9.752       9.635       9.541       9.432       9.269       9.033    
        8.738       8.458       8.272       8.115       7.977       7.829       7.652       7.472       7.256       7.006    
        6.840       6.729       6.618       6.539       6.451       6.309       6.106       5.873       5.594       5.351    
        5.194       5.030       4.803       4.574       4.346       4.054       3.766       3.540       3.271       2.919    
        2.650       2.330       2.016       1.808       1.542       1.247      0.9644      0.6563      0.3211       0.000    
  37    10.00       9.944       9.892       9.829       9.733       9.631       9.525       9.422       9.274       9.000    
        8.694       8.480       8.369       8.219       8.049       7.903       7.689       7.467       7.199       6.946    
        6.830       6.738       6.630       6.546       6.444       6.273       6.065       5.766       5.508       5.344    
        5.204       5.027       4.802       4.621       4.388       4.112       3.886       3.668       3.366       2.979    
        2.627       2.326       2.108       1.891       1.626       1.345       1.063      0.7238      0.3974       0.000    
  38    10.00       9.937       9.870       9.805       9.720       9.624       9.513       9.401       9.232       8.977    
        8.748       8.578       8.436       8.302       8.120       7.887       7.650       7.396       7.099       6.926    
        6.832       6.712       6.606       6.534       6.420       6.225       5.921       5.638       5.498       5.372    
        5.224       5.036       4.831       4.651       4.423       4.170       3.985       3.764       3.378       2.952    
        2.647       2.395       2.178       1.955       1.720       1.435       1.153      0.8371      0.4137       0.000    
  39    10.00       9.920       9.855       9.796       9.715       9.607       9.490       9.375       9.217       9.008    
        8.829       8.699       8.541       8.359       8.102       7.814       7.548       7.255       7.042       6.927    
        6.791       6.653       6.571       6.502       6.393       6.136       5.826       5.650       5.522       5.391    
        5.224       5.045       4.848       4.666       4.494       4.286       4.042       3.774       3.394       2.997    
        2.674       2.415       2.244       2.057       1.792       1.510       1.224      0.8712      0.4082       0.000    
  40    10.00       9.912       9.849       9.790       9.707       9.596       9.482       9.369       9.228       9.055    
        8.908       8.794       8.605       8.325       8.007       7.719       7.438       7.185       7.027       6.888    
        6.732       6.610       6.540       6.456       6.309       6.081       5.868       5.690       5.545       5.409    
        5.246       5.053       4.866       4.715       4.562       4.352       4.071       3.790       3.404       2.978    
        2.676       2.470       2.282       2.122       1.843       1.535       1.274      0.8736      0.4067       0.000    
  41    10.00       9.920       9.848       9.776       9.688       9.601       9.506       9.400       9.262       9.105    
        8.964       8.829       8.589       8.260       7.932       7.662       7.385       7.143       6.989       6.839    
        6.683       6.576       6.498       6.399       6.246       6.073       5.929       5.756       5.574       5.415    
        5.257       5.083       4.904       4.771       4.609       4.400       4.118       3.730       3.287       2.959    
        2.739       2.541       2.346       2.123       1.833       1.538       1.314      0.9306      0.4220       0.000    
  42    10.00       9.920       9.838       9.776       9.711       9.630       9.529       9.410       9.292       9.172    
        8.996       8.766       8.488       8.175       7.871       7.624       7.354       7.116       6.952       6.783    
        6.637       6.542       6.458       6.366       6.227       6.105       5.982       5.787       5.583       5.440    
        5.310       5.119       4.927       4.798       4.649       4.425       4.079       3.621       3.215       2.971    
        2.805       2.628       2.380       2.084       1.806       1.574       1.342      0.9815      0.4843       0.000    
  43    10.00       9.913       9.845       9.791       9.739       9.662       9.563       9.450       9.320       9.136    
        8.911       8.676       8.415       8.090       7.816       7.588       7.345       7.106       6.899       6.741    
        6.609       6.514       6.441       6.366       6.247       6.120       5.996       5.794       5.616       5.510    
        5.352       5.145       4.960       4.828       4.652       4.363       3.963       3.529       3.233       3.046    
        2.870       2.665       2.361       2.057       1.811       1.588       1.388      0.9954      0.4549       0.000    
  44    10.00       9.913       9.853       9.805       9.743       9.686       9.604       9.455       9.263       9.053    
        8.864       8.625       8.312       8.039       7.820       7.559       7.293       7.042       6.836       6.698    
        6.600       6.518       6.444       6.365       6.263       6.133       5.965       5.798       5.677       5.551    
        5.409       5.229       5.017       4.815       4.601       4.277       3.857       3.500       3.271       3.090    
        2.912       2.670       2.376       2.113       1.850       1.611       1.366      0.8986      0.4133       0.000    
  45    10.00       9.922       9.867       9.804       9.745       9.694       9.562       9.386       9.193       9.012    
        8.856       8.538       8.212       8.014       7.779       7.490       7.202       6.970       6.803       6.692    
        6.617       6.539       6.458       6.365       6.251       6.124       5.982       5.853       5.747       5.615    
        5.451       5.265       5.046       4.791       4.535       4.187       3.792       3.511       3.337       3.150    
        2.913       2.636       2.384       2.144       1.911       1.673       1.276      0.7986      0.4019       0.000    
  46    10.00       9.937       9.879       9.805       9.736       9.638       9.495       9.361       9.199       9.005    
        8.749       8.446       8.185       7.934       7.684       7.404       7.136       6.965       6.827       6.721    
        6.645       6.570       6.466       6.350       6.240       6.132       6.021       5.902       5.795       5.679    
        5.531       5.334       5.086       4.783       4.419       4.056       3.764       3.566       3.384       3.189    
        2.909       2.614       2.362       2.173       1.950       1.640       1.188      0.7628      0.3761       0.000    
  47    10.00       9.949       9.893       9.820       9.703       9.574       9.451       9.346       9.198       8.943    
        8.635       8.358       8.131       7.921       7.655       7.351       7.115       6.952       6.842       6.753    
        6.671       6.583       6.475       6.352       6.245       6.160       6.067       5.950       5.827       5.713    
        5.584       5.419       5.090       4.666       4.310       4.049       3.804       3.633       3.472       3.204    
        2.862       2.549       2.322       2.190       1.944       1.564       1.123      0.7359      0.3718       0.000    
  48    10.00       9.954       9.897       9.789       9.669       9.557       9.433       9.327       9.177       8.890    
        8.554       8.322       8.136       7.879       7.569       7.295       7.117       6.953       6.844       6.774    
        6.691       6.586       6.469       6.357       6.268       6.200       6.117       5.988       5.845       5.722    
        5.587       5.389       5.046       4.694       4.377       4.089       3.870       3.695       3.489       3.148    
        2.780       2.539       2.358       2.126       1.803       1.466       1.088      0.7412      0.3924       0.000    
  49    10.00       9.952       9.865       9.761       9.670       9.550       9.430       9.318       9.129       8.825    
        8.525       8.303       8.070       7.810       7.577       7.321       7.074       6.921       6.854       6.789    
        6.711       6.589       6.454       6.356       6.289       6.238       6.143       5.993       5.844       5.733    
        5.586       5.325       5.023       4.774       4.507       4.190       3.908       3.691       3.449       3.083    
        2.787       2.575       2.326       1.991       1.704       1.400       1.070      0.7535      0.3837       0.000    
  50    10.00       9.939       9.844       9.749       9.676       9.564       9.431       9.288       9.084       8.843    
        8.540       8.242       8.000       7.793       7.605       7.319       7.037       6.921       6.863       6.800    
        6.724       6.587       6.443       6.354       6.301       6.254       6.148       5.987       5.844       5.730    
        5.571       5.297       5.064       4.850       4.562       4.246       3.961       3.673       3.324       3.000    
        2.843       2.621       2.256       1.919       1.679       1.390       1.102      0.7360      0.3023       0.000    

 HEAD WILL BE SAVED ON UNIT   51 AT END OF TIME STEP  62, STRESS PERIOD    2

 DRAWDOWN WILL BE SAVED ON UNIT   52 AT END OF TIME STEP  62, STRESS PERIOD    2
1
  VOLUMETRIC BUDGET FOR ENTIRE MODEL AT END OF TIME STEP 62 IN STRESS PERIOD   2
  ------------------------------------------------------------------------------

     CUMULATIVE VOLUMES      L**3       RATES FOR THIS TIME STEP      L**3/T
     ------------------                 ------------------------

           IN:                                      IN:
           ---                                      ---
             STORAGE =       29813.8848               STORAGE =         436.9547
       CONSTANT HEAD =       35159.1445         CONSTANT HEAD =         599.7571
               WELLS =           0.0000                 WELLS =           0.0000

            TOTAL IN =       64973.0312              TOTAL IN =        1036.7118

          OUT:                                     OUT:
          ----                                     ----
             STORAGE =       9.3745E-03               STORAGE =           0.0000
       CONSTANT HEAD =       33973.0039         CONSTANT HEAD =         536.7119
               WELLS =       31000.0000                 WELLS =         500.0000

           TOTAL OUT =       64973.0117             TOTAL OUT =        1036.7119

            IN - OUT =       1.9531E-02              IN - OUT =      -1.2207E-04

 PERCENT DISCREPANCY =           0.00     PERCENT DISCREPANCY =           0.00






          TIME SUMMARY AT END OF TIME STEP  62 IN STRESS PERIOD    2
                    SECONDS     MINUTES      HOURS       DAYS        YEARS
                    -----------------------------------------------------------
   TIME STEP LENGTH  86400.      1440.0      24.000      1.0000     2.73785E-03
 STRESS PERIOD TIME 5.35680E+06  89280.      1488.0      62.000     0.16975    
         TOTAL TIME 5.44320E+06  90720.      1512.0      63.000     0.17248    
1
 
 SOLVING FOR HEAD 

 OUTPUT CONTROL FOR STRESS PERIOD    2   TIME STEP  63
    SAVE HEAD FOR ALL LAYERS
    SAVE DRAWDOWN FOR ALL LAYERS
    SAVE BUDGET
    PRINT HEAD FOR ALL LAYERS
    PRINT BUDGET
 UBDSV1 SAVING "         STORAGE" ON UNIT  53 AT TIME STEP 63, STRESS PERIOD   2
 UBDSV2 SAVING "   CONSTANT HEAD" ON UNIT  53 AT TIME STEP 63, STRESS PERIOD   2
 UBDSV1 SAVING "FLOW RIGHT FACE " ON UNIT  53 AT TIME STEP 63, STRESS PERIOD   2
 UBDSV1 SAVING "FLOW FRONT FACE " ON UNIT  53 AT TIME STEP 63, STRESS PERIOD   2
1
              HEAD IN LAYER   1 AT END OF TIME STEP  63 IN STRESS PERIOD    2
  ---------------------------------------------------------------------------

            1           2           3           4           5           6           7           8           9          10
           11          12          13          14          15          16          17          18          19          20
           21          22          23          24          25          26          27          28          29          30
           31          32          33          34          35          36          37          38          39          40
           41          42          43          44          45          46          47          48          49          50
 ........................................................................................................................
   1    10.00       9.955       9.893       9.832       9.780       9.718       9.656       9.592       9.506       9.435    
        9.394       9.352       9.305       9.260       9.186       9.105       9.017       8.949       8.917       8.884    
        8.842       8.806       8.769       8.723       8.660       8.549       8.416       8.286       8.138       7.991    
        7.781       7.449       7.057       6.644       6.181       5.753       5.391       5.055       4.596       4.097    
        3.673       3.254       2.676       2.128       1.744       1.359       1.036      0.8282      0.5493       0.000    
   2    10.00       9.954       9.899       9.837       9.783       9.725       9.657       9.572       9.489       9.435    
        9.398       9.360       9.325       9.267       9.183       9.099       9.019       8.951       8.918       8.880    
        8.837       8.809       8.780       8.731       8.658       8.552       8.418       8.283       8.144       7.997    
        7.771       7.427       7.015       6.548       6.081       5.669       5.345       5.015       4.549       4.081    
        3.653       3.150       2.628       2.194       1.813       1.455       1.087      0.7865      0.4199       0.000    
   3    10.00       9.950       9.897       9.840       9.785       9.718       9.634       9.553       9.501       9.451    
        9.408       9.375       9.340       9.286       9.201       9.097       9.012       8.957       8.915       8.876    
        8.841       8.811       8.782       8.720       8.642       8.534       8.407       8.305       8.158       7.984    
        7.692       7.292       6.851       6.398       5.969       5.586       5.298       4.957       4.453       3.997    
        3.641       3.184       2.704       2.289       1.893       1.532       1.097      0.6747      0.2968       0.000    
   4    10.00       9.954       9.900       9.838       9.770       9.693       9.612       9.552       9.507       9.461    
        9.423       9.395       9.356       9.298       9.220       9.107       9.012       8.960       8.915       8.879    
        8.838       8.803       8.766       8.700       8.620       8.516       8.391       8.277       8.162       7.943    
        7.564       7.074       6.602       6.255       5.937       5.567       5.197       4.765       4.338       4.008    
        3.692       3.288       2.809       2.399       1.985       1.548       1.046      0.5991      0.2791       0.000    
   5    10.00       9.950       9.893       9.823       9.752       9.681       9.610       9.560       9.513       9.472    
        9.439       9.410       9.365       9.297       9.206       9.102       9.021       8.964       8.918       8.867    
        8.820       8.784       8.737       8.670       8.594       8.474       8.350       8.252       8.137       7.856    
        7.356       6.815       6.426       6.163       5.876       5.504       5.081       4.656       4.355       4.076    
        3.792       3.376       2.878       2.521       2.100       1.528      0.9518      0.5529      0.2782       0.000    
   6    10.00       9.939       9.871       9.816       9.749       9.675       9.615       9.569       9.521       9.484    
        9.454       9.418       9.359       9.280       9.202       9.116       9.028       8.958       8.898       8.839    
        8.797       8.759       8.715       8.644       8.533       8.418       8.326       8.218       8.025       7.618    
        7.060       6.570       6.273       6.076       5.845       5.436       4.979       4.644       4.423       4.180    
        3.906       3.531       3.038       2.594       2.074       1.461      0.8535      0.4863      0.2717       0.000    
   7    10.00       9.921       9.857       9.804       9.740       9.686       9.629       9.582       9.541       9.502    
        9.462       9.410       9.339       9.262       9.191       9.120       9.023       8.927       8.863       8.815    
        8.774       8.732       8.687       8.592       8.477       8.385       8.284       8.110       7.779       7.261    
        6.734       6.352       6.170       6.019       5.724       5.318       5.019       4.730       4.493       4.326    
        4.051       3.664       3.137       2.563       1.921       1.218      0.7155      0.4937      0.2501       0.000    
   8    10.00       9.916       9.857       9.800       9.742       9.695       9.646       9.600       9.561       9.523    
        9.465       9.389       9.314       9.247       9.180       9.092       8.976       8.886       8.838       8.792    
        8.743       8.708       8.633       8.530       8.428       8.319       8.126       7.850       7.395       6.947    
        6.557       6.260       6.123       5.939       5.604       5.293       5.046       4.835       4.648       4.452    
        4.167       3.691       3.082       2.427       1.696       1.099      0.7571      0.4844      0.2232       0.000    
   9    10.00       9.920       9.854       9.797       9.756       9.716       9.668       9.623       9.578       9.534    
        9.461       9.368       9.290       9.221       9.141       9.042       8.937       8.858       8.808       8.760    
        8.716       8.658       8.553       8.457       8.351       8.198       7.917       7.501       7.052       6.732    
        6.426       6.212       6.059       5.814       5.507       5.269       5.094       4.935       4.776       4.563    
        4.210       3.715       3.068       2.337       1.664       1.138      0.7725      0.4805      0.2383       0.000    
  10    10.00       9.919       9.851       9.804       9.768       9.729       9.688       9.648       9.595       9.526    
        9.436       9.342       9.267       9.191       9.106       8.992       8.887       8.823       8.779       8.730    
        8.685       8.589       8.476       8.371       8.223       7.991       7.569       7.119       6.769       6.529    
        6.349       6.176       5.969       5.718       5.460       5.283       5.155       5.024       4.846       4.600    
        4.221       3.678       2.987       2.334       1.802       1.304      0.8274      0.5103      0.2690       0.000    
  11    10.00       9.908       9.856       9.817       9.780       9.746       9.709       9.656       9.581       9.503    
        9.413       9.321       9.248       9.147       9.031       8.930       8.855       8.796       8.752       8.698    
        8.616       8.491       8.329       8.172       7.912       7.566       7.193       6.898       6.619       6.448    
        6.297       6.068       5.836       5.651       5.482       5.354       5.227       5.060       4.850       4.560    
        4.205       3.726       3.027       2.432       1.960       1.483      0.9538      0.5059      0.2031       0.000    
  12    10.00       9.916       9.864       9.823       9.792       9.757       9.715       9.643       9.555       9.474    
        9.389       9.297       9.199       9.076       8.981       8.894       8.816       8.766       8.709       8.626    
        8.465       8.252       8.024       7.788       7.467       7.202       7.009       6.706       6.478       6.346    
        6.186       5.973       5.792       5.637       5.530       5.414       5.263       5.074       4.823       4.521    
        4.171       3.703       3.063       2.532       2.105       1.589       1.004      0.4790      0.1593       0.000    
  13    10.00       9.934       9.886       9.842       9.802       9.761       9.701       9.612       9.519       9.440    
        9.350       9.258       9.154       9.027       8.918       8.831       8.776       8.711       8.630       8.434    
        8.140       7.880       7.634       7.340       7.090       6.973       6.734       6.459       6.344       6.236    
        6.066       5.884       5.756       5.653       5.566       5.460       5.288       5.053       4.807       4.495    
        4.147       3.672       3.012       2.515       2.119       1.555      0.9355      0.4334      0.1252       0.000    
  14    10.00       9.952       9.909       9.861       9.814       9.751       9.663       9.569       9.486       9.395    
        9.306       9.221       9.096       8.955       8.855       8.786       8.694       8.595       8.400       8.055    
        7.742       7.511       7.188       6.948       6.837       6.706       6.460       6.302       6.187       6.083    
        5.941       5.832       5.757       5.676       5.586       5.478       5.285       5.027       4.764       4.447    
        4.074       3.500       2.878       2.477       1.992       1.450      0.9223      0.3958      0.1019       0.000    
  15    10.00       9.962       9.918       9.871       9.816       9.721       9.612       9.530       9.447       9.360    
        9.291       9.192       9.028       8.874       8.782       8.659       8.535       8.409       8.079       7.676    
        7.418       7.090       6.797       6.708       6.641       6.469       6.273       6.119       6.037       5.962    
        5.879       5.819       5.764       5.696       5.601       5.469       5.246       4.953       4.677       4.384    
        3.981       3.421       2.884       2.344       1.758       1.273      0.7930      0.3487      0.1046       0.000    
  16    10.00       9.972       9.929       9.873       9.787       9.670       9.576       9.509       9.435       9.345    
        9.253       9.110       8.920       8.772       8.638       8.493       8.408       8.152       7.674       7.302    
        7.043       6.722       6.615       6.562       6.436       6.218       6.061       5.991       5.968       5.919    
        5.859       5.812       5.767       5.696       5.582       5.417       5.149       4.884       4.666       4.352    
        3.893       3.289       2.671       2.070       1.571       1.091      0.6756      0.3309      0.1116       0.000    
  17    10.00       9.972       9.926       9.852       9.746       9.629       9.550       9.489       9.405       9.304    
        9.151       8.968       8.798       8.635       8.469       8.329       8.119       7.690       7.245       6.989    
        6.735       6.540       6.456       6.333       6.135       5.974       5.934       5.929       5.917       5.875    
        5.831       5.795       5.755       5.688       5.524       5.298       5.068       4.881       4.675       4.279    
        3.665       3.049       2.458       1.868       1.344      0.8830      0.5661      0.2958      0.1216       0.000    
  18    10.00       9.965       9.912       9.823       9.690       9.596       9.534       9.450       9.354       9.213    
        9.026       8.864       8.692       8.473       8.254       8.023       7.716       7.281       6.950       6.727    
        6.521       6.358       6.230       6.054       5.920       5.880       5.870       5.869       5.849       5.820    
        5.796       5.770       5.724       5.609       5.438       5.247       5.054       4.888       4.599       4.069    
        3.440       2.783       2.150       1.665       1.247      0.8278      0.4862      0.2447      0.1173       0.000    
  19    10.00       9.957       9.898       9.769       9.636       9.581       9.512       9.408       9.289       9.137    
        8.967       8.814       8.564       8.231       7.971       7.733       7.363       6.969       6.746       6.575    
        6.364       6.166       6.024       5.890       5.825       5.812       5.808       5.791       5.765       5.757    
        5.747       5.726       5.659       5.548       5.405       5.221       5.047       4.807       4.310       3.758    
        3.249       2.569       1.967       1.581       1.166      0.7469      0.4391      0.2492      0.1276       0.000    
  20    10.00       9.947       9.849       9.717       9.620       9.560       9.484       9.373       9.241       9.103    
        8.928       8.694       8.321       7.990       7.759       7.465       7.098       6.884       6.681       6.444    
        6.211       6.034       5.887       5.793       5.746       5.723       5.694       5.688       5.675       5.683    
        5.685       5.667       5.597       5.495       5.349       5.189       4.972       4.534       3.994       3.552    
        2.999       2.371       1.920       1.547       1.128      0.6630      0.3836      0.2594      0.1337       0.000    
  21    10.00       9.913       9.808       9.697       9.601       9.538       9.457       9.327       9.196       9.064    
        8.830       8.472       8.093       7.843       7.585       7.276       7.005       6.801       6.557       6.307    
        6.084       5.911       5.783       5.684       5.618       5.568       5.552       5.561       5.566       5.583    
        5.602       5.576       5.505       5.410       5.264       5.089       4.749       4.286       3.858       3.321    
        2.795       2.299       1.918       1.541      0.9504      0.5370      0.3884      0.2931      0.1405       0.000    
  22    10.00       9.890       9.764       9.665       9.589       9.513       9.398       9.277       9.161       8.979    
        8.679       8.274       7.973       7.748       7.459       7.142       6.882       6.667       6.445       6.208    
        5.987       5.804       5.633       5.479       5.393       5.374       5.391       5.407       5.445       5.470    
        5.493       5.464       5.406       5.307       5.161       4.986       4.639       4.193       3.633       3.112    
        2.731       2.335       1.876       1.243      0.7418      0.5355      0.4071      0.2711      0.1003       0.000    
  23    10.00       9.858       9.735       9.657       9.577       9.463       9.337       9.247       9.100       8.872    
        8.520       8.175       7.958       7.678       7.302       6.988       6.784       6.609       6.401       6.146    
        5.914       5.700       5.454       5.166       4.956       5.000       5.136       5.225       5.306       5.361    
        5.384       5.369       5.316       5.224       5.087       4.890       4.539       3.987       3.425       3.057    
        2.706       2.206       1.546       1.003      0.7302      0.5462      0.3908      0.2306      9.1776E-02   0.000    
  24    10.00       9.835       9.747       9.653       9.538       9.420       9.324       9.223       9.081       8.780    
        8.450       8.195       7.950       7.576       7.164       6.939       6.767       6.595       6.359       6.119    
        5.912       5.640       5.246       4.701       4.036       4.308       4.714       4.997       5.164       5.251    
        5.295       5.286       5.246       5.145       4.991       4.743       4.297       3.774       3.352       2.969    
        2.537       1.979       1.389      0.9728      0.7318      0.5323      0.3566      0.2499      0.1227       0.000    
  25    10.00       9.854       9.763       9.645       9.525       9.417       9.321       9.228       9.016       8.724    
        8.470       8.212       7.891       7.480       7.175       6.973       6.778       6.571       6.356       6.149    
        5.911       5.651       5.089       4.051       2.205       3.579       4.323       4.767       5.042       5.185    
        5.237       5.234       5.184       5.044       4.833       4.493       4.071       3.659       3.298       2.849    
        2.328       1.794       1.296      0.9644      0.7587      0.5533      0.3758      0.2618      0.1629       0.000    
  26    10.00       9.874       9.785       9.660       9.533       9.434       9.331       9.195       8.985       8.782    
        8.544       8.191       7.799       7.466       7.236       7.038       6.812       6.558       6.349       6.177    
        5.979       5.722       5.236       4.473       3.627       3.982       4.431       4.763       5.017       5.171    
        5.213       5.198       5.113       4.943       4.709       4.384       3.918       3.525       3.186       2.640    
        2.049       1.581       1.283       1.053      0.8182      0.5973      0.4097      0.2844      0.1662       0.000    
  27    10.00       9.899       9.790       9.678       9.568       9.450       9.336       9.198       9.026       8.840    
        8.540       8.144       7.800       7.524       7.330       7.103       6.809       6.544       6.381       6.239    
        6.084       5.846       5.478       5.027       4.570       4.540       4.711       4.923       5.111       5.200    
        5.209       5.178       5.077       4.890       4.615       4.174       3.733       3.408       2.890       2.313    
        1.853       1.552       1.328       1.126      0.8945      0.6520      0.4451      0.3130      0.1975       0.000    
  28    10.00       9.906       9.816       9.715       9.606       9.482       9.356       9.223       9.073       8.856    
        8.507       8.162       7.862       7.592       7.386       7.164       6.923       6.667       6.437       6.290    
        6.166       5.997       5.759       5.432       5.152       4.987       5.022       5.156       5.220       5.243    
        5.221       5.167       5.041       4.802       4.435       3.975       3.592       3.132       2.590       2.180    
        1.851       1.595       1.376       1.166      0.9399      0.7115      0.5051      0.3565      0.2038       0.000    
  29    10.00       9.913       9.825       9.745       9.639       9.527       9.404       9.268       9.103       8.814    
        8.488       8.196       7.912       7.684       7.451       7.215       6.996       6.791       6.569       6.375    
        6.242       6.112       5.955       5.759       5.494       5.363       5.347       5.352       5.354       5.312    
        5.244       5.135       4.981       4.671       4.218       3.808       3.417       2.935       2.500       2.198    
        1.931       1.651       1.402       1.200      0.9971      0.7527      0.5338      0.3726      0.2066       0.000    
  30    10.00       9.924       9.851       9.782       9.687       9.577       9.466       9.311       9.091       8.828    
        8.499       8.183       7.950       7.723       7.502       7.289       7.112       6.922       6.706       6.501    
        6.337       6.227       6.093       5.961       5.816       5.697       5.654       5.561       5.497       5.394    
        5.253       5.063       4.841       4.510       4.150       3.763       3.343       2.890       2.559       2.284    
        1.966       1.684       1.468       1.238      0.9957      0.7791      0.5691      0.3958      0.2224       0.000    
  31    10.00       9.940       9.880       9.814       9.743       9.654       9.529       9.338       9.087       8.810    
        8.494       8.211       8.000       7.778       7.573       7.377       7.201       7.052       6.836       6.630    
        6.480       6.362       6.257       6.155       6.079       5.969       5.850       5.744       5.610       5.447    
        5.220       4.972       4.739       4.466       4.121       3.709       3.282       2.908       2.673       2.411    
        2.058       1.749       1.501       1.268       1.043      0.8199      0.6033      0.4166      0.2157       0.000    
  32    10.00       9.948       9.905       9.848       9.781       9.697       9.564       9.345       9.118       8.855    
        8.530       8.269       8.069       7.842       7.625       7.465       7.312       7.136       6.963       6.760    
        6.605       6.481       6.386       6.299       6.211       6.122       5.982       5.848       5.679       5.454    
        5.190       4.936       4.691       4.426       4.085       3.713       3.377       3.058       2.788       2.489    
        2.163       1.856       1.595       1.326       1.081      0.8920      0.6655      0.4090      0.1827       0.000    
  33    10.00       9.956       9.923       9.874       9.806       9.717       9.545       9.330       9.146       8.912    
        8.615       8.368       8.133       7.879       7.689       7.554       7.421       7.241       7.050       6.877    
        6.705       6.579       6.464       6.367       6.288       6.200       6.056       5.873       5.694       5.476    
        5.209       4.976       4.717       4.387       4.067       3.735       3.462       3.210       2.905       2.574    
        2.291       2.001       1.714       1.436       1.177      0.9664      0.7125      0.4113      0.1788       0.000    
  34    10.00       9.964       9.938       9.897       9.809       9.679       9.521       9.372       9.182       8.952    
        8.700       8.431       8.170       7.923       7.766       7.655       7.513       7.341       7.127       6.961    
        6.808       6.650       6.526       6.429       6.350       6.240       6.074       5.899       5.705       5.453    
        5.217       5.023       4.770       4.449       4.128       3.820       3.561       3.311       2.995       2.694    
        2.441       2.161       1.847       1.570       1.308       1.066      0.7624      0.4629      0.2427       0.000    
  35    10.00       9.970       9.939       9.880       9.773       9.646       9.534       9.405       9.253       9.005    
        8.730       8.464       8.202       7.997       7.856       7.739       7.588       7.408       7.202       7.005    
        6.854       6.708       6.581       6.488       6.401       6.289       6.106       5.895       5.668       5.406    
        5.226       5.026       4.767       4.531       4.260       3.934       3.646       3.435       3.135       2.813    
        2.569       2.282       1.967       1.694       1.421       1.156      0.8741      0.5793      0.2866       0.000    
  36    10.00       9.964       9.914       9.850       9.751       9.634       9.540       9.430       9.267       9.029    
        8.733       8.453       8.266       8.108       7.970       7.821       7.644       7.463       7.247       6.997    
        6.831       6.720       6.609       6.530       6.442       6.301       6.098       5.866       5.588       5.346    
        5.190       5.027       4.800       4.572       4.344       4.053       3.764       3.538       3.270       2.918    
        2.650       2.330       2.016       1.807       1.542       1.247      0.9643      0.6562      0.3211       0.000    
  37    10.00       9.944       9.892       9.828       9.732       9.630       9.524       9.420       9.271       8.997    
        8.690       8.475       8.364       8.213       8.042       7.895       7.682       7.459       7.192       6.939    
        6.823       6.730       6.623       6.538       6.436       6.266       6.059       5.761       5.504       5.341    
        5.200       5.024       4.800       4.619       4.386       4.110       3.884       3.667       3.365       2.978    
        2.626       2.326       2.107       1.891       1.625       1.345       1.063      0.7237      0.3974       0.000    
  38    10.00       9.937       9.870       9.804       9.720       9.623       9.512       9.399       9.230       8.974    
        8.744       8.573       8.431       8.296       8.114       7.881       7.643       7.390       7.093       6.920    
        6.825       6.706       6.600       6.527       6.413       6.219       5.917       5.634       5.495       5.369    
        5.221       5.033       4.829       4.649       4.421       4.169       3.984       3.762       3.377       2.952    
        2.646       2.395       2.178       1.955       1.719       1.435       1.153      0.8370      0.4136       0.000    
  39    10.00       9.920       9.854       9.795       9.715       9.606       9.488       9.373       9.215       9.005    
        8.826       8.695       8.537       8.354       8.097       7.809       7.543       7.249       7.037       6.921    
        6.785       6.648       6.566       6.497       6.388       6.131       5.823       5.647       5.519       5.388    
        5.221       5.043       4.846       4.665       4.492       4.285       4.041       3.773       3.393       2.997    
        2.674       2.414       2.243       2.056       1.792       1.510       1.224      0.8711      0.4082       0.000    
  40    10.00       9.911       9.849       9.789       9.706       9.595       9.481       9.367       9.226       9.053    
        8.905       8.791       8.601       8.321       8.003       7.715       7.433       7.180       7.023       6.884    
        6.727       6.606       6.535       6.451       6.305       6.077       5.865       5.688       5.542       5.407    
        5.244       5.051       4.865       4.713       4.561       4.351       4.069       3.789       3.403       2.978    
        2.675       2.470       2.282       2.122       1.843       1.535       1.273      0.8735      0.4067       0.000    
  41    10.00       9.919       9.848       9.776       9.687       9.600       9.504       9.399       9.260       9.103    
        8.962       8.826       8.586       8.257       7.928       7.658       7.381       7.139       6.985       6.835    
        6.679       6.572       6.495       6.395       6.243       6.070       5.926       5.753       5.572       5.412    
        5.255       5.081       4.902       4.770       4.608       4.398       4.117       3.729       3.286       2.959    
        2.739       2.540       2.346       2.123       1.833       1.538       1.314      0.9305      0.4219       0.000    
  42    10.00       9.920       9.838       9.776       9.710       9.630       9.528       9.409       9.291       9.170    
        8.993       8.763       8.485       8.172       7.868       7.621       7.351       7.113       6.949       6.780    
        6.634       6.539       6.455       6.363       6.224       6.103       5.980       5.785       5.581       5.438    
        5.308       5.117       4.926       4.797       4.647       4.424       4.078       3.620       3.215       2.971    
        2.805       2.627       2.380       2.083       1.805       1.574       1.342      0.9814      0.4842       0.000    
  43    10.00       9.913       9.845       9.791       9.739       9.662       9.562       9.449       9.319       9.135    
        8.910       8.674       8.413       8.087       7.813       7.585       7.343       7.104       6.896       6.739    
        6.606       6.511       6.439       6.363       6.244       6.118       5.993       5.792       5.614       5.508    
        5.350       5.144       4.959       4.826       4.651       4.362       3.962       3.528       3.232       3.045    
        2.869       2.665       2.361       2.057       1.811       1.588       1.388      0.9952      0.4548       0.000    
  44    10.00       9.912       9.853       9.805       9.743       9.685       9.603       9.454       9.262       9.051    
        8.863       8.624       8.310       8.037       7.818       7.557       7.290       7.040       6.834       6.696    
        6.598       6.516       6.442       6.363       6.261       6.131       5.963       5.796       5.676       5.549    
        5.407       5.227       5.015       4.813       4.600       4.276       3.856       3.499       3.270       3.090    
        2.912       2.670       2.376       2.113       1.850       1.611       1.366      0.8985      0.4132       0.000    
  45    10.00       9.922       9.867       9.804       9.744       9.694       9.562       9.385       9.192       9.011    
        8.855       8.537       8.211       8.012       7.777       7.488       7.200       6.968       6.800       6.690    
        6.615       6.537       6.455       6.362       6.249       6.122       5.980       5.851       5.745       5.613    
        5.449       5.263       5.044       4.789       4.534       4.185       3.791       3.510       3.336       3.150    
        2.913       2.636       2.384       2.144       1.911       1.673       1.276      0.7985      0.4019       0.000    
  46    10.00       9.937       9.878       9.805       9.736       9.637       9.494       9.360       9.198       9.004    
        8.748       8.445       8.184       7.932       7.682       7.402       7.135       6.963       6.825       6.718    
        6.643       6.567       6.464       6.348       6.238       6.130       6.019       5.900       5.793       5.677    
        5.529       5.333       5.084       4.782       4.417       4.055       3.763       3.565       3.383       3.189    
        2.908       2.613       2.362       2.172       1.950       1.639       1.188      0.7627      0.3760       0.000    
  47    10.00       9.949       9.893       9.820       9.703       9.573       9.450       9.346       9.197       8.942    
        8.634       8.357       8.130       7.919       7.654       7.350       7.113       6.950       6.840       6.751    
        6.669       6.581       6.473       6.350       6.243       6.158       6.065       5.948       5.825       5.711    
        5.582       5.418       5.089       4.665       4.309       4.048       3.803       3.632       3.471       3.203    
        2.861       2.548       2.321       2.190       1.944       1.564       1.123      0.7358      0.3717       0.000    
  48    10.00       9.954       9.897       9.789       9.668       9.556       9.433       9.327       9.176       8.889    
        8.553       8.321       8.135       7.877       7.568       7.293       7.115       6.951       6.842       6.772    
        6.689       6.584       6.467       6.355       6.266       6.198       6.115       5.986       5.844       5.721    
        5.586       5.388       5.045       4.693       4.375       4.088       3.870       3.694       3.489       3.147    
        2.780       2.539       2.358       2.126       1.802       1.466       1.088      0.7411      0.3924       0.000    
  49    10.00       9.952       9.865       9.761       9.670       9.550       9.430       9.318       9.128       8.824    
        8.524       8.302       8.069       7.809       7.575       7.319       7.072       6.919       6.852       6.787    
        6.709       6.587       6.452       6.354       6.287       6.236       6.141       5.992       5.842       5.731    
        5.584       5.324       5.022       4.773       4.506       4.189       3.907       3.690       3.448       3.082    
        2.786       2.575       2.325       1.990       1.704       1.400       1.070      0.7534      0.3837       0.000    
  50    10.00       9.939       9.844       9.748       9.676       9.563       9.430       9.288       9.083       8.842    
        8.539       8.241       7.999       7.791       7.604       7.317       7.035       6.919       6.861       6.798    
        6.722       6.585       6.441       6.352       6.299       6.252       6.146       5.985       5.842       5.729    
        5.569       5.295       5.062       4.849       4.561       4.245       3.960       3.672       3.324       3.000    
        2.843       2.621       2.256       1.919       1.679       1.389       1.102      0.7359      0.3023       0.000    

 HEAD WILL BE SAVED ON UNIT   51 AT END OF TIME STEP  63, STRESS PERIOD    2

 DRAWDOWN WILL BE SAVED ON UNIT   52 AT END OF TIME STEP  63, STRESS PERIOD    2
1
  VOLUMETRIC BUDGET FOR ENTIRE MODEL AT END OF TIME STEP 63 IN STRESS PERIOD   2
  ------------------------------------------------------------------------------

     CUMULATIVE VOLUMES      L**3       RATES FOR THIS TIME STEP      L**3/T
     ------------------                 ------------------------

           IN:                                      IN:
           ---                                      ---
             STORAGE =       30248.8516               STORAGE =         434.9670
       CONSTANT HEAD =       35760.6953         CONSTANT HEAD =         601.5519
               WELLS =           0.0000                 WELLS =           0.0000

            TOTAL IN =       66009.5469              TOTAL IN =        1036.5188

          OUT:                                     OUT:
          ----                                     ----
             STORAGE =       9.3745E-03               STORAGE =           0.0000
       CONSTANT HEAD =       34509.5234         CONSTANT HEAD =         536.5191
               WELLS =       31500.0000                 WELLS =         500.0000

           TOTAL OUT =       66009.5312             TOTAL OUT =        1036.5190

            IN - OUT =       1.5625E-02              IN - OUT =      -2.4414E-04

 PERCENT DISCREPANCY =           0.00     PERCENT DISCREPANCY =           0.00






          TIME SUMMARY AT END OF TIME STEP  63 IN STRESS PERIOD    2
                    SECONDS     MINUTES      HOURS       DAYS        YEARS
                    -----------------------------------------------------------
   TIME STEP LENGTH  86400.      1440.0      24.000      1.0000     2.73785E-03
 STRESS PERIOD TIME 5.44320E+06  90720.      1512.0      63.000     0.17248    
         TOTAL TIME 5.52960E+06  92160.      1536.0      64.000     0.17522    
1
 
 SOLVING FOR HEAD 

 OUTPUT CONTROL FOR STRESS PERIOD    2   TIME STEP  64
    SAVE HEAD FOR ALL LAYERS
    SAVE DRAWDOWN FOR ALL LAYERS
    SAVE BUDGET
    PRINT HEAD FOR ALL LAYERS
    PRINT BUDGET
 UBDSV1 SAVING "         STORAGE" ON UNIT  53 AT TIME STEP 64, STRESS PERIOD   2
 UBDSV2 SAVING "   CONSTANT HEAD" ON UNIT  53 AT TIME STEP 64, STRESS PERIOD   2
 UBDSV1 SAVING "FLOW RIGHT FACE " ON UNIT  53 AT TIME STEP 64, STRESS PERIOD   2
 UBDSV1 SAVING "FLOW FRONT FACE " ON UNIT  53 AT TIME STEP 64, STRESS PERIOD   2
1
              HEAD IN LAYER   1 AT END OF TIME STEP  64 IN STRESS PERIOD    2
  ---------------------------------------------------------------------------

            1           2           3           4           5           6           7           8           9          10
           11          12          13          14          15          16          17          18          19          20
           21          22          23          24          25          26          27          28          29          30
           31          32          33          34          35          36          37          38          39          40
           41          42          43          44          45          46          47          48          49          50
 ........................................................................................................................
   1    10.00       9.955       9.893       9.831       9.780       9.717       9.655       9.591       9.504       9.433    
        9.392       9.350       9.303       9.257       9.183       9.102       9.014       8.945       8.914       8.880    
        8.838       8.802       8.766       8.720       8.656       8.545       8.412       8.283       8.134       7.987    
        7.778       7.445       7.053       6.640       6.178       5.750       5.388       5.052       4.593       4.094    
        3.670       3.252       2.674       2.126       1.743       1.358       1.036      0.8276      0.5489       0.000    
   2    10.00       9.954       9.899       9.837       9.782       9.724       9.656       9.571       9.488       9.433    
        9.396       9.358       9.322       9.265       9.180       9.097       9.016       8.948       8.915       8.876    
        8.833       8.806       8.777       8.728       8.654       8.549       8.414       8.279       8.140       7.993    
        7.767       7.424       7.011       6.544       6.077       5.665       5.341       5.012       4.546       4.078    
        3.651       3.147       2.626       2.193       1.812       1.454       1.086      0.7860      0.4197       0.000    
   3    10.00       9.950       9.897       9.840       9.784       9.718       9.632       9.552       9.499       9.449    
        9.406       9.373       9.338       9.284       9.199       9.095       9.009       8.954       8.912       8.873    
        8.837       8.808       8.778       8.717       8.638       8.531       8.403       8.301       8.154       7.980    
        7.688       7.288       6.847       6.394       5.965       5.583       5.294       4.954       4.450       3.995    
        3.639       3.182       2.703       2.287       1.892       1.531       1.096      0.6743      0.2966       0.000    
   4    10.00       9.954       9.900       9.838       9.769       9.692       9.611       9.551       9.506       9.459    
        9.421       9.393       9.354       9.296       9.218       9.104       9.009       8.957       8.912       8.875    
        8.835       8.800       8.762       8.697       8.616       8.512       8.387       8.273       8.158       7.939    
        7.560       7.070       6.598       6.251       5.932       5.564       5.193       4.761       4.335       4.004    
        3.689       3.285       2.807       2.398       1.984       1.546       1.045      0.5987      0.2789       0.000    
   5    10.00       9.950       9.893       9.822       9.751       9.680       9.609       9.558       9.511       9.471    
        9.438       9.408       9.363       9.294       9.203       9.099       9.018       8.961       8.915       8.864    
        8.816       8.780       8.733       8.666       8.591       8.470       8.346       8.248       8.133       7.852    
        7.352       6.811       6.421       6.158       5.871       5.500       5.077       4.651       4.351       4.072    
        3.789       3.373       2.876       2.519       2.098       1.526      0.9512      0.5526      0.2780       0.000    
   6    10.00       9.939       9.870       9.815       9.748       9.674       9.614       9.568       9.520       9.483    
        9.452       9.416       9.357       9.277       9.199       9.113       9.025       8.954       8.895       8.836    
        8.794       8.755       8.711       8.641       8.529       8.413       8.321       8.214       8.020       7.613    
        7.055       6.564       6.267       6.071       5.839       5.431       4.974       4.639       4.419       4.176    
        3.903       3.528       3.036       2.592       2.072       1.460      0.8529      0.4860      0.2715       0.000    
   7    10.00       9.921       9.857       9.803       9.739       9.685       9.628       9.580       9.539       9.500    
        9.460       9.408       9.337       9.259       9.188       9.117       9.019       8.924       8.859       8.811    
        8.770       8.728       8.683       8.587       8.473       8.381       8.279       8.105       7.774       7.255    
        6.728       6.346       6.164       6.013       5.718       5.313       5.014       4.725       4.489       4.322    
        4.047       3.661       3.134       2.560       1.920       1.217      0.7150      0.4934      0.2499       0.000    
   8    10.00       9.916       9.857       9.799       9.741       9.694       9.645       9.599       9.559       9.521    
        9.463       9.387       9.312       9.244       9.177       9.089       8.973       8.883       8.834       8.788    
        8.739       8.704       8.629       8.526       8.423       8.314       8.121       7.844       7.389       6.940    
        6.550       6.253       6.116       5.932       5.598       5.287       5.040       4.830       4.642       4.447    
        4.162       3.687       3.080       2.425       1.695       1.099      0.7566      0.4840      0.2230       0.000    
   9    10.00       9.920       9.853       9.796       9.755       9.715       9.667       9.622       9.577       9.533    
        9.459       9.366       9.288       9.219       9.138       9.039       8.934       8.854       8.804       8.756    
        8.712       8.653       8.549       8.453       8.347       8.193       7.911       7.494       7.045       6.724    
        6.419       6.205       6.052       5.807       5.500       5.262       5.088       4.929       4.771       4.558    
        4.206       3.711       3.066       2.335       1.662       1.137      0.7719      0.4802      0.2381       0.000    
  10    10.00       9.918       9.850       9.804       9.767       9.728       9.686       9.647       9.594       9.524    
        9.434       9.340       9.264       9.188       9.103       8.988       8.883       8.819       8.774       8.726    
        8.681       8.584       8.471       8.365       8.217       7.984       7.562       7.112       6.761       6.521    
        6.341       6.168       5.961       5.710       5.453       5.276       5.148       5.018       4.841       4.594    
        4.216       3.675       2.985       2.332       1.800       1.303      0.8268      0.5100      0.2688       0.000    
  11    10.00       9.907       9.855       9.816       9.779       9.745       9.708       9.654       9.579       9.501    
        9.411       9.319       9.245       9.144       9.027       8.927       8.851       8.792       8.747       8.694    
        8.612       8.486       8.324       8.166       7.905       7.558       7.185       6.889       6.610       6.439    
        6.288       6.060       5.828       5.643       5.474       5.347       5.220       5.053       4.844       4.555    
        4.200       3.722       3.025       2.430       1.959       1.482      0.9532      0.5056      0.2030       0.000    
  12    10.00       9.915       9.864       9.822       9.791       9.756       9.714       9.642       9.553       9.472    
        9.386       9.295       9.196       9.073       8.977       8.890       8.811       8.762       8.704       8.621    
        8.460       8.245       8.017       7.781       7.458       7.193       7.000       6.696       6.468       6.337    
        6.177       5.964       5.783       5.629       5.521       5.406       5.256       5.068       4.817       4.515    
        4.166       3.699       3.060       2.530       2.103       1.588       1.004      0.4787      0.1592       0.000    
  13    10.00       9.934       9.886       9.841       9.802       9.760       9.699       9.610       9.518       9.438    
        9.347       9.255       9.150       9.023       8.913       8.827       8.771       8.706       8.625       8.428    
        8.133       7.873       7.626       7.331       7.080       6.963       6.724       6.448       6.334       6.226    
        6.056       5.874       5.747       5.644       5.557       5.452       5.280       5.046       4.801       4.489    
        4.142       3.668       3.009       2.513       2.118       1.554      0.9350      0.4331      0.1251       0.000    
  14    10.00       9.952       9.908       9.861       9.813       9.750       9.661       9.567       9.484       9.393    
        9.303       9.217       9.093       8.951       8.850       8.781       8.689       8.590       8.394       8.048    
        7.733       7.502       7.178       6.938       6.826       6.695       6.449       6.291       6.176       6.072    
        5.930       5.821       5.747       5.666       5.577       5.469       5.277       5.020       4.758       4.441    
        4.069       3.496       2.875       2.475       1.990       1.449      0.9218      0.3956      0.1018       0.000    
  15    10.00       9.962       9.918       9.870       9.815       9.720       9.610       9.528       9.445       9.357    
        9.288       9.188       9.024       8.869       8.776       8.654       8.529       8.402       8.072       7.667    
        7.408       7.080       6.785       6.697       6.630       6.457       6.261       6.107       6.025       5.951    
        5.868       5.808       5.753       5.686       5.592       5.460       5.238       4.946       4.670       4.378    
        3.976       3.417       2.881       2.342       1.756       1.272      0.7925      0.3485      0.1046       0.000    
  16    10.00       9.972       9.929       9.872       9.786       9.669       9.574       9.507       9.432       9.342    
        9.249       9.106       8.916       8.767       8.632       8.487       8.401       8.144       7.664       7.292    
        7.032       6.711       6.603       6.550       6.423       6.206       6.048       5.978       5.956       5.907    
        5.848       5.801       5.756       5.685       5.572       5.408       5.140       4.876       4.659       4.345    
        3.888       3.286       2.668       2.069       1.570       1.090      0.6751      0.3307      0.1115       0.000    
  17    10.00       9.971       9.926       9.852       9.744       9.627       9.548       9.486       9.403       9.301    
        9.147       8.963       8.792       8.629       8.462       8.322       8.111       7.680       7.234       6.978    
        6.723       6.528       6.443       6.321       6.122       5.961       5.921       5.916       5.904       5.863    
        5.819       5.784       5.744       5.677       5.514       5.288       5.059       4.873       4.668       4.273    
        3.661       3.046       2.456       1.867       1.343      0.8824      0.5657      0.2956      0.1215       0.000    
  18    10.00       9.965       9.912       9.822       9.688       9.594       9.531       9.447       9.351       9.209    
        9.022       8.859       8.686       8.466       8.246       8.014       7.707       7.270       6.938       6.714    
        6.508       6.345       6.216       6.041       5.907       5.866       5.857       5.856       5.837       5.808    
        5.784       5.758       5.713       5.598       5.428       5.237       5.045       4.880       4.591       4.063    
        3.435       2.780       2.148       1.664       1.246      0.8272      0.4859      0.2445      0.1172       0.000    
  19    10.00       9.957       9.898       9.768       9.634       9.579       9.509       9.405       9.286       9.133    
        8.962       8.808       8.558       8.223       7.962       7.724       7.352       6.957       6.734       6.563    
        6.350       6.153       6.011       5.876       5.812       5.799       5.795       5.778       5.751       5.744    
        5.735       5.714       5.647       5.537       5.394       5.211       5.038       4.799       4.303       3.753    
        3.245       2.566       1.965       1.580       1.165      0.7464      0.4388      0.2490      0.1276       0.000    
  20    10.00       9.947       9.848       9.715       9.618       9.557       9.482       9.370       9.237       9.098    
        8.922       8.688       8.313       7.981       7.749       7.454       7.087       6.871       6.668       6.430    
        6.197       6.020       5.873       5.779       5.732       5.709       5.681       5.675       5.662       5.669    
        5.671       5.654       5.584       5.483       5.338       5.179       4.963       4.526       3.988       3.547    
        2.995       2.369       1.918       1.546       1.127      0.6625      0.3834      0.2592      0.1336       0.000    
  21    10.00       9.912       9.806       9.695       9.599       9.536       9.454       9.323       9.191       9.059    
        8.824       8.465       8.083       7.833       7.574       7.264       6.992       6.788       6.544       6.293    
        6.070       5.897       5.769       5.670       5.604       5.554       5.538       5.547       5.552       5.569    
        5.588       5.562       5.492       5.398       5.253       5.078       4.740       4.278       3.853       3.316    
        2.792       2.297       1.916       1.539      0.9498      0.5367      0.3881      0.2929      0.1404       0.000    
  22    10.00       9.889       9.763       9.663       9.587       9.510       9.395       9.273       9.156       8.974    
        8.672       8.266       7.963       7.737       7.447       7.130       6.870       6.654       6.431       6.194    
        5.973       5.790       5.618       5.465       5.379       5.360       5.377       5.392       5.431       5.455    
        5.479       5.450       5.392       5.294       5.149       4.976       4.630       4.186       3.628       3.109    
        2.728       2.332       1.874       1.242      0.7413      0.5352      0.4069      0.2710      0.1002       0.000    
  23    10.00       9.857       9.733       9.655       9.574       9.460       9.334       9.243       9.095       8.866    
        8.513       8.166       7.948       7.667       7.291       6.976       6.771       6.596       6.388       6.133    
        5.900       5.686       5.440       5.151       4.941       4.985       5.121       5.211       5.291       5.346    
        5.369       5.355       5.302       5.211       5.075       4.879       4.530       3.980       3.421       3.054    
        2.703       2.204       1.545       1.002      0.7298      0.5459      0.3906      0.2305      9.1731E-02   0.000    
  24    10.00       9.835       9.745       9.651       9.536       9.416       9.320       9.219       9.076       8.774    
        8.442       8.186       7.940       7.565       7.152       6.926       6.754       6.582       6.345       6.105    
        5.898       5.626       5.232       4.687       4.021       4.293       4.699       4.982       5.149       5.236    
        5.280       5.272       5.232       5.132       4.979       4.732       4.289       3.768       3.348       2.966    
        2.535       1.977       1.388      0.9722      0.7314      0.5320      0.3565      0.2498      0.1226       0.000    
  25    10.00       9.853       9.762       9.643       9.523       9.413       9.317       9.224       9.011       8.717    
        8.462       8.203       7.881       7.469       7.163       6.960       6.765       6.558       6.342       6.136    
        5.897       5.637       5.075       4.036       2.189       3.563       4.308       4.752       5.026       5.170    
        5.222       5.220       5.170       5.031       4.821       4.483       4.063       3.653       3.293       2.846    
        2.325       1.793       1.295      0.9639      0.7583      0.5530      0.3757      0.2616      0.1629       0.000    
  26    10.00       9.873       9.784       9.658       9.530       9.431       9.328       9.190       8.980       8.775    
        8.536       8.182       7.789       7.455       7.224       7.026       6.799       6.545       6.336       6.163    
        5.965       5.708       5.222       4.458       3.611       3.966       4.416       4.747       5.001       5.156    
        5.198       5.184       5.099       4.931       4.698       4.375       3.910       3.520       3.181       2.637    
        2.048       1.580       1.283       1.053      0.8178      0.5971      0.4096      0.2843      0.1661       0.000    
  27    10.00       9.899       9.789       9.676       9.565       9.447       9.333       9.194       9.021       8.834    
        8.533       8.135       7.790       7.513       7.319       7.091       6.796       6.531       6.367       6.225    
        6.070       5.832       5.464       5.013       4.555       4.524       4.696       4.907       5.095       5.185    
        5.194       5.163       5.063       4.878       4.605       4.166       3.727       3.403       2.886       2.311    
        1.852       1.551       1.327       1.126      0.8940      0.6517      0.4449      0.3129      0.1974       0.000    
  28    10.00       9.905       9.815       9.713       9.604       9.480       9.353       9.219       9.069       8.851    
        8.499       8.153       7.852       7.581       7.375       7.152       6.911       6.655       6.424       6.276    
        6.152       5.983       5.745       5.417       5.137       4.972       5.006       5.141       5.205       5.228    
        5.207       5.153       5.028       4.790       4.426       3.968       3.586       3.128       2.587       2.178    
        1.850       1.594       1.375       1.165      0.9395      0.7112      0.5049      0.3563      0.2037       0.000    
  29    10.00       9.912       9.824       9.743       9.637       9.525       9.401       9.264       9.099       8.808    
        8.481       8.188       7.903       7.674       7.440       7.203       6.984       6.779       6.557       6.362    
        6.229       6.099       5.941       5.745       5.479       5.348       5.332       5.337       5.339       5.297    
        5.231       5.122       4.969       4.661       4.211       3.802       3.413       2.932       2.498       2.197    
        1.930       1.650       1.401       1.200      0.9966      0.7523      0.5336      0.3724      0.2066       0.000    
  30    10.00       9.924       9.851       9.780       9.685       9.575       9.463       9.308       9.087       8.822    
        8.492       8.174       7.941       7.713       7.492       7.278       7.101       6.910       6.694       6.488    
        6.324       6.214       6.079       5.947       5.802       5.683       5.640       5.547       5.483       5.380    
        5.240       5.052       4.831       4.502       4.144       3.758       3.340       2.887       2.557       2.282    
        1.965       1.684       1.467       1.237      0.9953      0.7788      0.5689      0.3957      0.2223       0.000    
  31    10.00       9.940       9.879       9.813       9.742       9.652       9.527       9.335       9.083       8.804    
        8.487       8.203       7.991       7.768       7.563       7.366       7.190       7.041       6.824       6.618    
        6.467       6.349       6.244       6.141       6.066       5.955       5.836       5.731       5.596       5.435    
        5.209       4.962       4.731       4.459       4.115       3.705       3.279       2.906       2.671       2.410    
        2.057       1.748       1.501       1.268       1.042      0.8196      0.6031      0.4165      0.2157       0.000    
  32    10.00       9.948       9.905       9.847       9.780       9.696       9.562       9.342       9.114       8.850    
        8.524       8.261       8.061       7.833       7.615       7.455       7.302       7.125       6.952       6.748    
        6.593       6.468       6.374       6.287       6.199       6.110       5.970       5.835       5.667       5.443    
        5.180       4.928       4.684       4.420       4.080       3.709       3.375       3.056       2.787       2.487    
        2.162       1.855       1.594       1.326       1.080      0.8917      0.6653      0.4089      0.1826       0.000    
  33    10.00       9.956       9.922       9.873       9.805       9.716       9.543       9.327       9.142       8.907    
        8.609       8.361       8.125       7.871       7.680       7.544       7.411       7.231       7.039       6.866    
        6.693       6.567       6.452       6.355       6.276       6.188       6.044       5.861       5.683       5.467    
        5.201       4.969       4.711       4.382       4.063       3.731       3.459       3.207       2.903       2.573    
        2.291       2.000       1.713       1.436       1.177      0.9662      0.7123      0.4112      0.1787       0.000    
  34    10.00       9.964       9.938       9.897       9.809       9.678       9.519       9.369       9.179       8.947    
        8.694       8.425       8.163       7.915       7.758       7.646       7.503       7.332       7.117       6.950    
        6.797       6.639       6.515       6.418       6.339       6.229       6.064       5.889       5.696       5.445    
        5.210       5.017       4.765       4.445       4.124       3.817       3.559       3.309       2.993       2.693    
        2.440       2.161       1.847       1.570       1.308       1.065      0.7623      0.4629      0.2427       0.000    
  35    10.00       9.970       9.938       9.880       9.772       9.645       9.532       9.402       9.250       9.001    
        8.725       8.458       8.195       7.990       7.848       7.731       7.580       7.399       7.193       6.995    
        6.844       6.698       6.572       6.478       6.392       6.279       6.096       5.887       5.660       5.400    
        5.220       5.022       4.763       4.528       4.257       3.932       3.645       3.434       3.134       2.812    
        2.568       2.281       1.967       1.694       1.421       1.156      0.8740      0.5793      0.2866       0.000    
  36    10.00       9.963       9.913       9.850       9.750       9.632       9.538       9.428       9.264       9.026    
        8.728       8.447       8.260       8.102       7.963       7.814       7.636       7.455       7.239       6.988    
        6.823       6.712       6.601       6.522       6.434       6.293       6.090       5.859       5.583       5.342    
        5.186       5.023       4.797       4.569       4.342       4.051       3.763       3.537       3.269       2.917    
        2.649       2.329       2.015       1.807       1.542       1.247      0.9641      0.6561      0.3210       0.000    
  37    10.00       9.944       9.891       9.828       9.731       9.629       9.522       9.418       9.269       8.993    
        8.685       8.470       8.358       8.207       8.035       7.888       7.674       7.451       7.184       6.932    
        6.816       6.723       6.615       6.531       6.429       6.259       6.053       5.756       5.500       5.337    
        5.197       5.021       4.797       4.616       4.384       4.109       3.883       3.665       3.364       2.978    
        2.626       2.325       2.107       1.891       1.625       1.345       1.062      0.7236      0.3973       0.000    
  38    10.00       9.937       9.869       9.803       9.719       9.622       9.510       9.398       9.228       8.971    
        8.740       8.569       8.426       8.291       8.108       7.874       7.636       7.383       7.087       6.913    
        6.819       6.700       6.594       6.521       6.407       6.213       5.912       5.631       5.492       5.366    
        5.218       5.031       4.827       4.647       4.420       4.168       3.983       3.761       3.376       2.951    
        2.645       2.394       2.178       1.954       1.719       1.435       1.153      0.8369      0.4136       0.000    
  39    10.00       9.920       9.854       9.794       9.714       9.604       9.487       9.372       9.212       9.003    
        8.823       8.691       8.533       8.349       8.091       7.804       7.537       7.244       7.031       6.916    
        6.780       6.642       6.561       6.492       6.383       6.127       5.819       5.644       5.516       5.386    
        5.219       5.041       4.844       4.663       4.491       4.283       4.040       3.772       3.392       2.996    
        2.673       2.414       2.243       2.056       1.791       1.510       1.224      0.8710      0.4081       0.000    
  40    10.00       9.911       9.849       9.789       9.706       9.594       9.480       9.366       9.224       9.050    
        8.902       8.788       8.597       8.317       7.998       7.710       7.429       7.176       7.018       6.879    
        6.723       6.602       6.531       6.447       6.302       6.074       5.863       5.685       5.540       5.405    
        5.242       5.049       4.863       4.711       4.559       4.350       4.068       3.788       3.402       2.977    
        2.675       2.469       2.281       2.121       1.843       1.534       1.273      0.8734      0.4066       0.000    
  41    10.00       9.919       9.847       9.776       9.687       9.599       9.503       9.398       9.258       9.100    
        8.959       8.823       8.582       8.253       7.925       7.655       7.378       7.135       6.981       6.832    
        6.675       6.569       6.491       6.392       6.240       6.067       5.924       5.751       5.569       5.410    
        5.254       5.079       4.900       4.768       4.606       4.397       4.116       3.728       3.285       2.958    
        2.738       2.540       2.345       2.123       1.833       1.538       1.314      0.9304      0.4219       0.000    
  42    10.00       9.920       9.838       9.775       9.710       9.629       9.527       9.408       9.289       9.168    
        8.991       8.761       8.483       8.169       7.865       7.618       7.347       7.110       6.945       6.777    
        6.631       6.536       6.452       6.361       6.222       6.100       5.978       5.782       5.579       5.436    
        5.306       5.116       4.924       4.795       4.646       4.423       4.076       3.619       3.214       2.970    
        2.804       2.627       2.379       2.083       1.805       1.574       1.342      0.9813      0.4841       0.000    
  43    10.00       9.913       9.844       9.790       9.739       9.661       9.561       9.448       9.317       9.133    
        8.908       8.672       8.411       8.085       7.811       7.583       7.340       7.101       6.893       6.736    
        6.603       6.509       6.436       6.361       6.242       6.115       5.991       5.789       5.612       5.506    
        5.348       5.142       4.957       4.825       4.650       4.361       3.961       3.527       3.232       3.045    
        2.869       2.664       2.360       2.056       1.811       1.588       1.388      0.9951      0.4547       0.000    
  44    10.00       9.912       9.853       9.804       9.743       9.685       9.603       9.453       9.261       9.050    
        8.861       8.622       8.308       8.035       7.815       7.554       7.288       7.037       6.831       6.693    
        6.595       6.513       6.439       6.361       6.258       6.128       5.961       5.794       5.674       5.547    
        5.405       5.226       5.014       4.812       4.599       4.275       3.855       3.498       3.270       3.089    
        2.911       2.669       2.375       2.112       1.849       1.610       1.366      0.8984      0.4131       0.000    
  45    10.00       9.922       9.867       9.804       9.744       9.693       9.561       9.384       9.191       9.009    
        8.854       8.535       8.209       8.011       7.775       7.486       7.198       6.966       6.798       6.687    
        6.613       6.535       6.453       6.360       6.247       6.120       5.978       5.849       5.743       5.611    
        5.447       5.261       5.043       4.788       4.533       4.184       3.790       3.509       3.336       3.149    
        2.912       2.635       2.383       2.143       1.911       1.672       1.275      0.7984      0.4018       0.000    
  46    10.00       9.937       9.878       9.805       9.736       9.637       9.493       9.360       9.198       9.003    
        8.746       8.444       8.182       7.930       7.680       7.400       7.133       6.961       6.823       6.716    
        6.641       6.565       6.462       6.346       6.236       6.128       6.017       5.898       5.791       5.675    
        5.527       5.331       5.083       4.781       4.416       4.054       3.763       3.564       3.382       3.188    
        2.908       2.613       2.362       2.172       1.949       1.639       1.187      0.7626      0.3760       0.000    
  47    10.00       9.949       9.893       9.820       9.703       9.573       9.450       9.345       9.196       8.941    
        8.633       8.356       8.128       7.918       7.652       7.348       7.111       6.948       6.838       6.749    
        6.667       6.579       6.471       6.348       6.241       6.156       6.063       5.946       5.823       5.709    
        5.581       5.416       5.087       4.664       4.308       4.047       3.803       3.632       3.471       3.202    
        2.861       2.548       2.321       2.190       1.944       1.564       1.123      0.7357      0.3717       0.000    
  48    10.00       9.954       9.897       9.788       9.668       9.556       9.432       9.326       9.176       8.888    
        8.552       8.319       8.133       7.876       7.566       7.291       7.113       6.949       6.840       6.770    
        6.687       6.582       6.465       6.353       6.264       6.196       6.113       5.984       5.842       5.719    
        5.584       5.386       5.044       4.692       4.374       4.087       3.869       3.693       3.488       3.147    
        2.779       2.538       2.358       2.126       1.802       1.466       1.088      0.7410      0.3923       0.000    
  49    10.00       9.952       9.865       9.760       9.670       9.549       9.429       9.317       9.128       8.823    
        8.522       8.300       8.067       7.807       7.573       7.318       7.070       6.917       6.850       6.785    
        6.707       6.585       6.450       6.352       6.285       6.234       6.139       5.990       5.840       5.729    
        5.583       5.322       5.020       4.771       4.505       4.188       3.906       3.690       3.448       3.082    
        2.786       2.574       2.325       1.990       1.704       1.400       1.070      0.7533      0.3836       0.000    
  50    10.00       9.939       9.844       9.748       9.675       9.563       9.430       9.287       9.082       8.842    
        8.537       8.240       7.997       7.790       7.602       7.315       7.033       6.918       6.859       6.796    
        6.720       6.583       6.439       6.350       6.297       6.250       6.144       5.983       5.841       5.727    
        5.567       5.294       5.061       4.848       4.560       4.245       3.959       3.671       3.323       2.999    
        2.842       2.620       2.256       1.919       1.679       1.389       1.102      0.7358      0.3022       0.000    

 HEAD WILL BE SAVED ON UNIT   51 AT END OF TIME STEP  64, STRESS PERIOD    2

 DRAWDOWN WILL BE SAVED ON UNIT   52 AT END OF TIME STEP  64, STRESS PERIOD    2
1
  VOLUMETRIC BUDGET FOR ENTIRE MODEL AT END OF TIME STEP 64 IN STRESS PERIOD   2
  ------------------------------------------------------------------------------

     CUMULATIVE VOLUMES      L**3       RATES FOR THIS TIME STEP      L**3/T
     ------------------                 ------------------------

           IN:                                      IN:
           ---                                      ---
             STORAGE =       30681.8242               STORAGE =         432.9733
       CONSTANT HEAD =       36364.0430         CONSTANT HEAD =         603.3471
               WELLS =           0.0000                 WELLS =           0.0000

            TOTAL IN =       67045.8672              TOTAL IN =        1036.3203

          OUT:                                     OUT:
          ----                                     ----
             STORAGE =       9.3745E-03               STORAGE =           0.0000
       CONSTANT HEAD =       35045.8438         CONSTANT HEAD =         536.3199
               WELLS =       32000.0000                 WELLS =         500.0000

           TOTAL OUT =       67045.8516             TOTAL OUT =        1036.3199

            IN - OUT =       1.5625E-02              IN - OUT =       3.6621E-04

 PERCENT DISCREPANCY =           0.00     PERCENT DISCREPANCY =           0.00






          TIME SUMMARY AT END OF TIME STEP  64 IN STRESS PERIOD    2
                    SECONDS     MINUTES      HOURS       DAYS        YEARS
                    -----------------------------------------------------------
   TIME STEP LENGTH  86400.      1440.0      24.000      1.0000     2.73785E-03
 STRESS PERIOD TIME 5.52960E+06  92160.      1536.0      64.000     0.17522    
         TOTAL TIME 5.61600E+06  93600.      1560.0      65.000     0.17796    
1
 
 SOLVING FOR HEAD 

 OUTPUT CONTROL FOR STRESS PERIOD    2   TIME STEP  65
    SAVE HEAD FOR ALL LAYERS
    SAVE DRAWDOWN FOR ALL LAYERS
    SAVE BUDGET
    PRINT HEAD FOR ALL LAYERS
    PRINT BUDGET
 UBDSV1 SAVING "         STORAGE" ON UNIT  53 AT TIME STEP 65, STRESS PERIOD   2
 UBDSV2 SAVING "   CONSTANT HEAD" ON UNIT  53 AT TIME STEP 65, STRESS PERIOD   2
 UBDSV1 SAVING "FLOW RIGHT FACE " ON UNIT  53 AT TIME STEP 65, STRESS PERIOD   2
 UBDSV1 SAVING "FLOW FRONT FACE " ON UNIT  53 AT TIME STEP 65, STRESS PERIOD   2
1
              HEAD IN LAYER   1 AT END OF TIME STEP  65 IN STRESS PERIOD    2
  ---------------------------------------------------------------------------

            1           2           3           4           5           6           7           8           9          10
           11          12          13          14          15          16          17          18          19          20
           21          22          23          24          25          26          27          28          29          30
           31          32          33          34          35          36          37          38          39          40
           41          42          43          44          45          46          47          48          49          50
 ........................................................................................................................
   1    10.00       9.954       9.892       9.830       9.779       9.716       9.654       9.589       9.503       9.431    
        9.390       9.347       9.301       9.255       9.181       9.100       9.011       8.942       8.911       8.877    
        8.835       8.799       8.762       8.716       8.652       8.542       8.408       8.279       8.131       7.983    
        7.774       7.441       7.049       6.637       6.174       5.747       5.385       5.049       4.590       4.092    
        3.668       3.249       2.672       2.125       1.741       1.357       1.035      0.8271      0.5486       0.000    
   2    10.00       9.954       9.898       9.836       9.781       9.723       9.655       9.569       9.486       9.431    
        9.394       9.356       9.320       9.263       9.178       9.094       9.013       8.945       8.912       8.873    
        8.830       8.803       8.773       8.724       8.651       8.545       8.411       8.276       8.137       7.990    
        7.763       7.420       7.007       6.541       6.074       5.662       5.338       5.008       4.543       4.076    
        3.648       3.145       2.624       2.191       1.811       1.453       1.086      0.7855      0.4194       0.000    
   3    10.00       9.950       9.896       9.839       9.784       9.717       9.631       9.550       9.497       9.447    
        9.404       9.371       9.336       9.282       9.196       9.092       9.006       8.951       8.909       8.870    
        8.834       8.804       8.775       8.713       8.635       8.527       8.399       8.297       8.150       7.976    
        7.684       7.284       6.843       6.390       5.961       5.579       5.291       4.951       4.447       3.992    
        3.636       3.179       2.701       2.285       1.891       1.530       1.095      0.6739      0.2964       0.000    
   4    10.00       9.954       9.899       9.837       9.768       9.691       9.609       9.549       9.504       9.457    
        9.419       9.391       9.352       9.294       9.215       9.101       9.006       8.954       8.909       8.872    
        8.831       8.796       8.759       8.693       8.612       8.508       8.383       8.269       8.154       7.935    
        7.556       7.066       6.594       6.246       5.928       5.560       5.189       4.757       4.331       4.001    
        3.686       3.283       2.805       2.396       1.982       1.545       1.045      0.5983      0.2787       0.000    
   5    10.00       9.950       9.893       9.822       9.750       9.679       9.607       9.557       9.509       9.469    
        9.436       9.406       9.361       9.292       9.201       9.096       9.015       8.958       8.912       8.860    
        8.812       8.777       8.729       8.662       8.587       8.466       8.342       8.244       8.129       7.847    
        7.347       6.805       6.416       6.153       5.867       5.495       5.073       4.647       4.348       4.069    
        3.785       3.370       2.873       2.517       2.097       1.525      0.9505      0.5522      0.2778       0.000    
   6    10.00       9.938       9.870       9.814       9.747       9.673       9.613       9.567       9.518       9.481    
        9.450       9.414       9.355       9.275       9.197       9.110       9.022       8.951       8.891       8.832    
        8.790       8.751       8.708       8.637       8.525       8.409       8.317       8.210       8.016       7.608    
        7.049       6.558       6.261       6.065       5.834       5.426       4.969       4.635       4.415       4.172    
        3.899       3.525       3.033       2.590       2.071       1.459      0.8523      0.4856      0.2713       0.000    
   7    10.00       9.920       9.856       9.802       9.738       9.684       9.627       9.579       9.538       9.498    
        9.458       9.406       9.334       9.257       9.186       9.114       9.016       8.920       8.856       8.808    
        8.766       8.724       8.679       8.583       8.468       8.376       8.275       8.100       7.769       7.249    
        6.721       6.340       6.158       6.007       5.712       5.307       5.008       4.720       4.484       4.318    
        4.043       3.658       3.132       2.558       1.918       1.216      0.7145      0.4931      0.2497       0.000    
   8    10.00       9.916       9.856       9.798       9.740       9.693       9.644       9.598       9.558       9.520    
        9.461       9.385       9.310       9.242       9.175       9.086       8.969       8.879       8.830       8.784    
        8.735       8.700       8.625       8.521       8.419       8.310       8.116       7.839       7.383       6.934    
        6.544       6.246       6.110       5.926       5.591       5.281       5.034       4.824       4.637       4.442    
        4.158       3.684       3.077       2.423       1.694       1.098      0.7561      0.4837      0.2229       0.000    
   9    10.00       9.919       9.852       9.795       9.754       9.714       9.666       9.620       9.575       9.531    
        9.457       9.363       9.285       9.216       9.135       9.036       8.930       8.851       8.800       8.751    
        8.708       8.649       8.544       8.448       8.342       8.188       7.905       7.488       7.038       6.717    
        6.411       6.197       6.045       5.800       5.493       5.256       5.081       4.924       4.765       4.553    
        4.201       3.708       3.063       2.333       1.661       1.137      0.7714      0.4799      0.2379       0.000    
  10    10.00       9.918       9.850       9.803       9.766       9.727       9.685       9.645       9.592       9.522    
        9.432       9.338       9.261       9.185       9.100       8.985       8.879       8.815       8.770       8.722    
        8.677       8.580       8.467       8.360       8.212       7.978       7.555       7.104       6.753       6.513    
        6.333       6.160       5.954       5.703       5.446       5.269       5.142       5.012       4.835       4.589    
        4.212       3.671       2.982       2.330       1.799       1.302      0.8263      0.5097      0.2686       0.000    
  11    10.00       9.907       9.855       9.815       9.778       9.744       9.707       9.653       9.578       9.499    
        9.408       9.316       9.242       9.141       9.024       8.923       8.847       8.787       8.743       8.689    
        8.607       8.481       8.318       8.160       7.899       7.551       7.176       6.880       6.601       6.431    
        6.280       6.051       5.820       5.635       5.467       5.339       5.213       5.047       4.838       4.549    
        4.195       3.718       3.022       2.428       1.957       1.480      0.9526      0.5053      0.2029       0.000    
  12    10.00       9.915       9.863       9.822       9.791       9.755       9.713       9.641       9.551       9.470    
        9.384       9.292       9.193       9.069       8.973       8.886       8.807       8.757       8.700       8.617    
        8.455       8.240       8.011       7.774       7.450       7.184       6.991       6.687       6.459       6.328    
        6.168       5.955       5.774       5.620       5.513       5.398       5.249       5.061       4.811       4.510    
        4.161       3.695       3.057       2.527       2.102       1.587       1.003      0.4785      0.1591       0.000    
  13    10.00       9.934       9.886       9.841       9.801       9.760       9.698       9.609       9.516       9.435    
        9.344       9.252       9.147       9.020       8.909       8.822       8.766       8.702       8.620       8.423    
        8.126       7.865       7.618       7.322       7.070       6.953       6.713       6.438       6.324       6.216    
        6.047       5.865       5.737       5.635       5.549       5.443       5.272       5.038       4.794       4.484    
        4.138       3.664       3.006       2.511       2.116       1.553      0.9345      0.4329      0.1251       0.000    
  14    10.00       9.951       9.908       9.860       9.812       9.749       9.660       9.565       9.482       9.390    
        9.300       9.214       9.089       8.947       8.846       8.776       8.684       8.584       8.388       8.041    
        7.725       7.493       7.168       6.927       6.815       6.684       6.437       6.280       6.165       6.061    
        5.919       5.811       5.737       5.657       5.568       5.460       5.269       5.013       4.751       4.435    
        4.064       3.492       2.872       2.473       1.989       1.448      0.9212      0.3953      0.1018       0.000    
  15    10.00       9.962       9.918       9.870       9.814       9.719       9.609       9.526       9.442       9.354    
        9.285       9.185       9.020       8.864       8.771       8.648       8.523       8.396       8.064       7.658    
        7.398       7.069       6.774       6.685       6.618       6.445       6.249       6.095       6.014       5.939    
        5.857       5.798       5.743       5.676       5.582       5.451       5.229       4.938       4.663       4.372    
        3.971       3.414       2.878       2.340       1.755       1.271      0.7920      0.3482      0.1045       0.000    
  16    10.00       9.972       9.928       9.872       9.785       9.667       9.573       9.505       9.430       9.339    
        9.246       9.102       8.911       8.761       8.626       8.480       8.395       8.137       7.655       7.282    
        7.021       6.699       6.591       6.538       6.411       6.194       6.036       5.966       5.944       5.895    
        5.836       5.789       5.745       5.675       5.562       5.398       5.132       4.868       4.652       4.339    
        3.883       3.282       2.666       2.067       1.569       1.090      0.6747      0.3305      0.1115       0.000    
  17    10.00       9.971       9.926       9.851       9.743       9.625       9.546       9.484       9.400       9.298    
        9.143       8.959       8.787       8.623       8.455       8.315       8.103       7.671       7.223       6.966    
        6.711       6.516       6.431       6.308       6.109       5.948       5.908       5.904       5.892       5.851    
        5.807       5.772       5.733       5.666       5.503       5.279       5.050       4.865       4.660       4.267    
        3.656       3.042       2.453       1.865       1.342      0.8818      0.5654      0.2954      0.1214       0.000    
  18    10.00       9.965       9.911       9.821       9.686       9.592       9.529       9.444       9.348       9.205    
        9.017       8.853       8.680       8.459       8.239       8.005       7.697       7.259       6.926       6.702    
        6.496       6.332       6.204       6.028       5.893       5.853       5.844       5.843       5.824       5.795    
        5.772       5.747       5.701       5.587       5.417       5.227       5.037       4.872       4.584       4.057    
        3.431       2.777       2.146       1.662       1.245      0.8266      0.4856      0.2444      0.1171       0.000    
  19    10.00       9.956       9.897       9.767       9.632       9.576       9.507       9.402       9.282       9.128    
        8.957       8.802       8.551       8.215       7.953       7.714       7.341       6.945       6.721       6.550    
        6.337       6.139       5.997       5.863       5.798       5.785       5.782       5.765       5.738       5.731    
        5.722       5.702       5.635       5.525       5.384       5.201       5.029       4.790       4.296       3.747    
        3.241       2.564       1.963       1.579       1.164      0.7459      0.4385      0.2488      0.1275       0.000    
  20    10.00       9.947       9.848       9.714       9.615       9.555       9.479       9.367       9.233       9.094    
        8.917       8.681       8.304       7.972       7.739       7.443       7.075       6.859       6.656       6.417    
        6.184       6.007       5.860       5.765       5.718       5.695       5.667       5.661       5.648       5.656    
        5.658       5.641       5.572       5.471       5.327       5.168       4.954       4.518       3.982       3.542    
        2.991       2.366       1.916       1.544       1.126      0.6621      0.3831      0.2591      0.1335       0.000    
  21    10.00       9.912       9.805       9.693       9.597       9.533       9.451       9.319       9.187       9.054    
        8.818       8.457       8.074       7.823       7.564       7.253       6.980       6.776       6.531       6.280    
        6.057       5.884       5.755       5.656       5.590       5.540       5.524       5.534       5.538       5.555    
        5.575       5.549       5.479       5.386       5.241       5.068       4.731       4.271       3.847       3.312    
        2.789       2.295       1.915       1.538      0.9491      0.5364      0.3879      0.2927      0.1404       0.000    
  22    10.00       9.889       9.761       9.661       9.585       9.508       9.391       9.269       9.152       8.968    
        8.665       8.257       7.953       7.727       7.436       7.118       6.857       6.641       6.418       6.181    
        5.959       5.776       5.604       5.451       5.365       5.345       5.363       5.378       5.417       5.441    
        5.465       5.436       5.379       5.281       5.138       4.965       4.621       4.178       3.623       3.105    
        2.725       2.330       1.872       1.241      0.7409      0.5349      0.4067      0.2708      0.1002       0.000    
  23    10.00       9.856       9.732       9.653       9.572       9.457       9.330       9.239       9.090       8.860    
        8.505       8.157       7.939       7.656       7.279       6.963       6.758       6.583       6.375       6.119    
        5.886       5.672       5.426       5.137       4.927       4.971       5.107       5.196       5.277       5.332    
        5.355       5.341       5.289       5.198       5.063       4.869       4.521       3.974       3.416       3.050    
        2.700       2.202       1.544       1.002      0.7293      0.5456      0.3904      0.2304      9.1683E-02   0.000    
  24    10.00       9.834       9.744       9.649       9.533       9.413       9.316       9.214       9.071       8.767    
        8.435       8.177       7.930       7.554       7.140       6.914       6.741       6.569       6.332       6.091    
        5.884       5.612       5.218       4.672       4.006       4.278       4.684       4.967       5.135       5.222    
        5.265       5.258       5.219       5.119       4.967       4.722       4.281       3.762       3.343       2.962    
        2.532       1.976       1.387      0.9716      0.7310      0.5317      0.3563      0.2497      0.1226       0.000    
  25    10.00       9.853       9.760       9.641       9.520       9.410       9.313       9.220       9.006       8.710    
        8.454       8.194       7.871       7.458       7.151       6.948       6.752       6.545       6.329       6.122    
        5.883       5.623       5.060       4.021       2.173       3.548       4.293       4.737       5.011       5.155    
        5.207       5.206       5.157       5.018       4.810       4.473       4.056       3.647       3.289       2.842    
        2.323       1.791       1.294      0.9634      0.7579      0.5527      0.3755      0.2615      0.1628       0.000    
  26    10.00       9.872       9.783       9.657       9.527       9.427       9.324       9.186       8.975       8.769    
        8.529       8.173       7.779       7.444       7.213       7.014       6.787       6.532       6.323       6.150    
        5.951       5.694       5.207       4.443       3.596       3.951       4.400       4.732       4.986       5.141    
        5.183       5.169       5.086       4.919       4.687       4.365       3.903       3.514       3.177       2.634    
        2.046       1.579       1.282       1.052      0.8173      0.5968      0.4094      0.2841      0.1660       0.000    
  27    10.00       9.898       9.787       9.674       9.563       9.444       9.329       9.190       9.016       8.828    
        8.525       8.126       7.780       7.502       7.307       7.079       6.784       6.518       6.354       6.212    
        6.056       5.819       5.450       4.998       4.540       4.509       4.680       4.892       5.080       5.170    
        5.179       5.149       5.050       4.866       4.594       4.157       3.720       3.397       2.883       2.309    
        1.851       1.550       1.326       1.125      0.8936      0.6514      0.4447      0.3128      0.1973       0.000    
  28    10.00       9.905       9.814       9.712       9.602       9.477       9.350       9.215       9.064       8.845    
        8.492       8.144       7.843       7.571       7.364       7.141       6.899       6.642       6.411       6.263    
        6.139       5.969       5.731       5.403       5.122       4.957       4.991       5.125       5.190       5.213    
        5.192       5.139       5.015       4.779       4.417       3.961       3.581       3.124       2.585       2.176    
        1.849       1.593       1.374       1.164      0.9390      0.7109      0.5046      0.3562      0.2036       0.000    
  29    10.00       9.912       9.823       9.742       9.635       9.522       9.398       9.260       9.094       8.802    
        8.474       8.179       7.893       7.664       7.429       7.192       6.973       6.766       6.544       6.349    
        6.216       6.085       5.927       5.731       5.465       5.333       5.317       5.322       5.324       5.283    
        5.217       5.109       4.958       4.652       4.203       3.797       3.408       2.929       2.496       2.195    
        1.929       1.649       1.400       1.199      0.9961      0.7520      0.5334      0.3723      0.2065       0.000    
  30    10.00       9.924       9.850       9.779       9.684       9.572       9.461       9.305       9.082       8.817    
        8.485       8.166       7.932       7.704       7.481       7.267       7.090       6.899       6.682       6.476    
        6.311       6.200       6.066       5.933       5.788       5.669       5.626       5.532       5.469       5.367    
        5.227       5.041       4.821       4.494       4.138       3.753       3.336       2.885       2.555       2.280    
        1.964       1.683       1.466       1.237      0.9948      0.7785      0.5687      0.3955      0.2222       0.000    
  31    10.00       9.939       9.879       9.812       9.741       9.651       9.525       9.331       9.078       8.799    
        8.480       8.196       7.982       7.759       7.553       7.356       7.179       7.030       6.813       6.605    
        6.455       6.336       6.231       6.128       6.052       5.942       5.823       5.717       5.583       5.422    
        5.199       4.953       4.723       4.453       4.110       3.701       3.276       2.903       2.669       2.408    
        2.056       1.747       1.500       1.267       1.042      0.8193      0.6028      0.4163      0.2156       0.000    
  32    10.00       9.948       9.904       9.846       9.779       9.694       9.560       9.339       9.110       8.845    
        8.517       8.254       8.053       7.824       7.606       7.445       7.291       7.114       6.940       6.737    
        6.581       6.456       6.362       6.274       6.187       6.097       5.957       5.823       5.655       5.433    
        5.171       4.920       4.677       4.414       4.076       3.706       3.372       3.053       2.785       2.486    
        2.161       1.854       1.594       1.325       1.080      0.8915      0.6651      0.4087      0.1826       0.000    
  33    10.00       9.956       9.922       9.873       9.804       9.714       9.541       9.324       9.139       8.902    
        8.603       8.354       8.117       7.862       7.671       7.535       7.401       7.220       7.029       6.855    
        6.682       6.555       6.440       6.343       6.265       6.176       6.033       5.850       5.673       5.458    
        5.193       4.962       4.704       4.377       4.059       3.728       3.457       3.205       2.901       2.571    
        2.290       1.999       1.712       1.435       1.177      0.9659      0.7121      0.4111      0.1787       0.000    
  34    10.00       9.963       9.938       9.896       9.808       9.676       9.517       9.367       9.175       8.943    
        8.689       8.418       8.156       7.907       7.749       7.637       7.494       7.322       7.107       6.940    
        6.786       6.629       6.505       6.407       6.328       6.218       6.054       5.879       5.687       5.437    
        5.204       5.011       4.760       4.441       4.121       3.814       3.556       3.307       2.992       2.692    
        2.439       2.160       1.846       1.569       1.307       1.065      0.7622      0.4628      0.2427       0.000    
  35    10.00       9.970       9.938       9.879       9.771       9.644       9.530       9.400       9.247       8.997    
        8.720       8.452       8.188       7.982       7.840       7.723       7.571       7.390       7.183       6.986    
        6.835       6.689       6.562       6.469       6.382       6.269       6.087       5.878       5.653       5.393    
        5.215       5.017       4.759       4.524       4.255       3.930       3.643       3.433       3.133       2.812    
        2.567       2.280       1.966       1.694       1.421       1.156      0.8739      0.5792      0.2865       0.000    
  36    10.00       9.963       9.913       9.849       9.749       9.631       9.536       9.426       9.261       9.022    
        8.724       8.442       8.254       8.095       7.955       7.806       7.628       7.446       7.230       6.980    
        6.815       6.704       6.592       6.514       6.425       6.284       6.082       5.852       5.577       5.337    
        5.182       5.020       4.794       4.567       4.340       4.049       3.762       3.536       3.268       2.916    
        2.648       2.329       2.015       1.807       1.541       1.246      0.9640      0.6561      0.3210       0.000    
  37    10.00       9.944       9.891       9.827       9.730       9.627       9.520       9.416       9.266       8.990    
        8.681       8.465       8.353       8.201       8.028       7.881       7.667       7.444       7.176       6.925    
        6.808       6.715       6.608       6.524       6.421       6.252       6.046       5.751       5.496       5.334    
        5.194       5.018       4.795       4.614       4.382       4.107       3.882       3.664       3.363       2.977    
        2.625       2.325       2.107       1.890       1.625       1.345       1.062      0.7235      0.3973       0.000    
  38    10.00       9.937       9.869       9.803       9.718       9.621       9.509       9.396       9.225       8.968    
        8.737       8.564       8.421       8.285       8.101       7.868       7.630       7.377       7.080       6.907    
        6.812       6.693       6.588       6.515       6.401       6.207       5.907       5.627       5.489       5.363    
        5.215       5.028       4.825       4.645       4.418       4.166       3.981       3.760       3.375       2.950    
        2.645       2.394       2.177       1.954       1.719       1.434       1.153      0.8367      0.4135       0.000    
  39    10.00       9.919       9.853       9.794       9.713       9.603       9.486       9.370       9.210       9.000    
        8.819       8.687       8.528       8.344       8.086       7.798       7.532       7.239       7.026       6.910    
        6.774       6.637       6.556       6.487       6.378       6.123       5.816       5.641       5.513       5.383    
        5.216       5.038       4.842       4.661       4.489       4.282       4.038       3.771       3.391       2.995    
        2.672       2.413       2.243       2.056       1.791       1.509       1.224      0.8709      0.4081       0.000    
  40    10.00       9.911       9.848       9.788       9.705       9.593       9.479       9.364       9.223       9.048    
        8.899       8.785       8.594       8.313       7.994       7.706       7.424       7.171       7.013       6.874    
        6.718       6.598       6.527       6.443       6.298       6.071       5.860       5.682       5.537       5.402    
        5.239       5.047       4.861       4.710       4.558       4.348       4.067       3.787       3.401       2.976    
        2.674       2.469       2.281       2.121       1.843       1.534       1.273      0.8732      0.4066       0.000    
  41    10.00       9.919       9.847       9.775       9.686       9.598       9.502       9.396       9.257       9.098    
        8.957       8.820       8.579       8.250       7.921       7.651       7.374       7.131       6.978       6.828    
        6.672       6.565       6.488       6.388       6.237       6.065       5.921       5.748       5.567       5.408    
        5.252       5.077       4.899       4.766       4.605       4.396       4.114       3.727       3.285       2.957    
        2.738       2.539       2.345       2.122       1.833       1.537       1.314      0.9303      0.4218       0.000    
  42    10.00       9.919       9.838       9.775       9.709       9.628       9.526       9.407       9.288       9.167    
        8.989       8.759       8.480       8.167       7.862       7.615       7.344       7.106       6.942       6.773    
        6.628       6.533       6.449       6.358       6.219       6.098       5.975       5.780       5.577       5.434    
        5.304       5.114       4.922       4.794       4.644       4.421       4.075       3.618       3.213       2.969    
        2.804       2.626       2.379       2.083       1.805       1.574       1.342      0.9811      0.4841       0.000    
  43    10.00       9.913       9.844       9.790       9.738       9.660       9.561       9.447       9.316       9.132    
        8.906       8.670       8.409       8.083       7.808       7.580       7.337       7.098       6.890       6.733    
        6.601       6.506       6.433       6.358       6.240       6.113       5.989       5.787       5.610       5.504    
        5.346       5.140       4.956       4.823       4.648       4.359       3.959       3.526       3.231       3.044    
        2.868       2.664       2.360       2.056       1.810       1.588       1.388      0.9949      0.4547       0.000    
  44    10.00       9.912       9.853       9.804       9.742       9.684       9.602       9.452       9.260       9.049    
        8.860       8.620       8.306       8.033       7.813       7.552       7.286       7.035       6.829       6.691    
        6.593       6.511       6.437       6.358       6.256       6.126       5.959       5.792       5.672       5.545    
        5.404       5.224       5.012       4.810       4.597       4.274       3.854       3.498       3.269       3.088    
        2.911       2.669       2.375       2.112       1.849       1.610       1.365      0.8982      0.4131       0.000    
  45    10.00       9.922       9.867       9.803       9.744       9.693       9.560       9.383       9.190       9.008    
        8.853       8.534       8.207       8.009       7.773       7.484       7.195       6.963       6.796       6.685    
        6.610       6.532       6.451       6.358       6.244       6.117       5.976       5.847       5.741       5.609    
        5.446       5.260       5.041       4.787       4.532       4.183       3.789       3.509       3.335       3.148    
        2.912       2.635       2.383       2.143       1.910       1.672       1.275      0.7983      0.4017       0.000    
  46    10.00       9.937       9.878       9.804       9.735       9.637       9.493       9.359       9.197       9.002    
        8.745       8.442       8.181       7.929       7.679       7.399       7.131       6.959       6.821       6.714    
        6.638       6.563       6.459       6.343       6.234       6.126       6.015       5.896       5.789       5.673    
        5.526       5.329       5.081       4.779       4.415       4.053       3.762       3.563       3.381       3.187    
        2.907       2.612       2.361       2.172       1.949       1.639       1.187      0.7625      0.3759       0.000    
  47    10.00       9.949       9.893       9.820       9.702       9.572       9.449       9.345       9.195       8.940    
        8.632       8.354       8.127       7.916       7.650       7.346       7.109       6.946       6.836       6.747    
        6.665       6.576       6.468       6.346       6.239       6.154       6.061       5.944       5.821       5.707    
        5.579       5.414       5.086       4.662       4.307       4.046       3.802       3.631       3.470       3.202    
        2.860       2.548       2.320       2.189       1.943       1.564       1.123      0.7356      0.3716       0.000    
  48    10.00       9.954       9.897       9.788       9.668       9.555       9.432       9.325       9.175       8.887    
        8.551       8.318       8.132       7.874       7.564       7.290       7.111       6.947       6.838       6.768    
        6.685       6.579       6.463       6.351       6.262       6.194       6.111       5.982       5.840       5.717    
        5.582       5.384       5.042       4.691       4.373       4.086       3.868       3.693       3.487       3.146    
        2.779       2.538       2.357       2.125       1.802       1.465       1.087      0.7409      0.3923       0.000    
  49    10.00       9.952       9.865       9.760       9.669       9.549       9.429       9.316       9.127       8.822    
        8.521       8.299       8.066       7.805       7.572       7.316       7.068       6.915       6.848       6.783    
        6.705       6.583       6.448       6.350       6.283       6.232       6.137       5.988       5.838       5.727    
        5.581       5.321       5.019       4.770       4.504       4.187       3.905       3.689       3.447       3.081    
        2.785       2.574       2.325       1.990       1.703       1.400       1.069      0.7532      0.3836       0.000    
  50    10.00       9.939       9.844       9.748       9.675       9.562       9.429       9.286       9.082       8.841    
        8.536       8.238       7.996       7.788       7.600       7.313       7.031       6.916       6.857       6.794    
        6.718       6.581       6.437       6.348       6.295       6.248       6.142       5.981       5.839       5.725    
        5.566       5.292       5.060       4.846       4.559       4.244       3.958       3.671       3.323       2.999    
        2.842       2.620       2.255       1.919       1.679       1.389       1.102      0.7357      0.3022       0.000    

 HEAD WILL BE SAVED ON UNIT   51 AT END OF TIME STEP  65, STRESS PERIOD    2

 DRAWDOWN WILL BE SAVED ON UNIT   52 AT END OF TIME STEP  65, STRESS PERIOD    2
1
  VOLUMETRIC BUDGET FOR ENTIRE MODEL AT END OF TIME STEP 65 IN STRESS PERIOD   2
  ------------------------------------------------------------------------------

     CUMULATIVE VOLUMES      L**3       RATES FOR THIS TIME STEP      L**3/T
     ------------------                 ------------------------

           IN:                                      IN:
           ---                                      ---
             STORAGE =       31112.7969               STORAGE =         430.9729
       CONSTANT HEAD =       36969.1836         CONSTANT HEAD =         605.1419
               WELLS =           0.0000                 WELLS =           0.0000

            TOTAL IN =       68081.9844              TOTAL IN =        1036.1149

          OUT:                                     OUT:
          ----                                     ----
             STORAGE =       9.3745E-03               STORAGE =           0.0000
       CONSTANT HEAD =       35581.9570         CONSTANT HEAD =         536.1145
               WELLS =       32500.0000                 WELLS =         500.0000

           TOTAL OUT =       68081.9688             TOTAL OUT =        1036.1145

            IN - OUT =       1.5625E-02              IN - OUT =       3.6621E-04

 PERCENT DISCREPANCY =           0.00     PERCENT DISCREPANCY =           0.00






          TIME SUMMARY AT END OF TIME STEP  65 IN STRESS PERIOD    2
                    SECONDS     MINUTES      HOURS       DAYS        YEARS
                    -----------------------------------------------------------
   TIME STEP LENGTH  86400.      1440.0      24.000      1.0000     2.73785E-03
 STRESS PERIOD TIME 5.61600E+06  93600.      1560.0      65.000     0.17796    
         TOTAL TIME 5.70240E+06  95040.      1584.0      66.000     0.18070    
1
 
 SOLVING FOR HEAD 

 OUTPUT CONTROL FOR STRESS PERIOD    2   TIME STEP  66
    SAVE HEAD FOR ALL LAYERS
    SAVE DRAWDOWN FOR ALL LAYERS
    SAVE BUDGET
    PRINT HEAD FOR ALL LAYERS
    PRINT BUDGET
 UBDSV1 SAVING "         STORAGE" ON UNIT  53 AT TIME STEP 66, STRESS PERIOD   2
 UBDSV2 SAVING "   CONSTANT HEAD" ON UNIT  53 AT TIME STEP 66, STRESS PERIOD   2
 UBDSV1 SAVING "FLOW RIGHT FACE " ON UNIT  53 AT TIME STEP 66, STRESS PERIOD   2
 UBDSV1 SAVING "FLOW FRONT FACE " ON UNIT  53 AT TIME STEP 66, STRESS PERIOD   2
1
              HEAD IN LAYER   1 AT END OF TIME STEP  66 IN STRESS PERIOD    2
  ---------------------------------------------------------------------------

            1           2           3           4           5           6           7           8           9          10
           11          12          13          14          15          16          17          18          19          20
           21          22          23          24          25          26          27          28          29          30
           31          32          33          34          35          36          37          38          39          40
           41          42          43          44          45          46          47          48          49          50
 ........................................................................................................................
   1    10.00       9.954       9.892       9.830       9.778       9.715       9.653       9.588       9.501       9.430    
        9.388       9.345       9.299       9.253       9.178       9.097       9.008       8.939       8.908       8.874    
        8.832       8.796       8.759       8.713       8.649       8.538       8.405       8.275       8.127       7.979    
        7.770       7.437       7.046       6.633       6.171       5.743       5.381       5.046       4.587       4.089    
        3.665       3.247       2.671       2.123       1.740       1.356       1.034      0.8265      0.5482       0.000    
   2    10.00       9.954       9.898       9.836       9.781       9.722       9.653       9.568       9.484       9.429    
        9.392       9.354       9.318       9.260       9.175       9.091       9.010       8.942       8.908       8.870    
        8.827       8.799       8.770       8.721       8.647       8.541       8.407       8.272       8.133       7.986    
        7.759       7.416       7.003       6.537       6.070       5.658       5.335       5.005       4.540       4.073    
        3.645       3.143       2.622       2.190       1.810       1.452       1.085      0.7849      0.4191       0.000    
   3    10.00       9.949       9.896       9.839       9.783       9.716       9.630       9.549       9.496       9.446    
        9.402       9.369       9.334       9.279       9.194       9.089       9.003       8.947       8.905       8.866    
        8.830       8.801       8.771       8.710       8.631       8.523       8.396       8.294       8.146       7.972    
        7.680       7.280       6.839       6.386       5.957       5.576       5.287       4.947       4.443       3.989    
        3.633       3.177       2.699       2.284       1.889       1.529       1.095      0.6734      0.2962       0.000    
   4    10.00       9.953       9.899       9.837       9.768       9.690       9.608       9.548       9.502       9.455    
        9.417       9.389       9.350       9.291       9.213       9.098       9.003       8.951       8.905       8.869    
        8.828       8.793       8.755       8.689       8.609       8.504       8.379       8.265       8.150       7.931    
        7.552       7.061       6.589       6.242       5.924       5.556       5.186       4.754       4.328       3.998    
        3.683       3.280       2.802       2.394       1.981       1.544       1.044      0.5979      0.2785       0.000    
   5    10.00       9.950       9.892       9.821       9.750       9.678       9.606       9.555       9.508       9.467    
        9.434       9.404       9.359       9.290       9.198       9.094       9.012       8.955       8.908       8.857    
        8.809       8.773       8.725       8.659       8.583       8.462       8.338       8.239       8.125       7.843    
        7.342       6.800       6.411       6.148       5.862       5.491       5.069       4.643       4.344       4.065    
        3.782       3.367       2.871       2.515       2.095       1.524      0.9498      0.5518      0.2776       0.000    
   6    10.00       9.938       9.869       9.814       9.746       9.672       9.611       9.565       9.516       9.479    
        9.449       9.412       9.353       9.273       9.194       9.107       9.019       8.948       8.888       8.828    
        8.786       8.747       8.704       8.633       8.520       8.405       8.313       8.205       8.011       7.604    
        7.044       6.553       6.255       6.060       5.829       5.421       4.964       4.630       4.411       4.168    
        3.896       3.522       3.031       2.588       2.069       1.458      0.8517      0.4853      0.2712       0.000    
   7    10.00       9.920       9.856       9.802       9.737       9.683       9.626       9.578       9.536       9.497    
        9.457       9.404       9.332       9.254       9.183       9.111       9.013       8.917       8.852       8.804    
        8.763       8.720       8.675       8.579       8.464       8.372       8.270       8.095       7.764       7.244    
        6.715       6.333       6.151       6.001       5.706       5.301       5.003       4.715       4.480       4.313    
        4.039       3.654       3.129       2.556       1.917       1.215      0.7140      0.4927      0.2496       0.000    
   8    10.00       9.915       9.856       9.797       9.740       9.692       9.642       9.596       9.556       9.518    
        9.460       9.383       9.308       9.239       9.172       9.083       8.966       8.876       8.826       8.780    
        8.731       8.696       8.620       8.517       8.414       8.305       8.111       7.833       7.377       6.927    
        6.537       6.239       6.103       5.919       5.585       5.275       5.028       4.819       4.632       4.438    
        4.154       3.680       3.074       2.421       1.692       1.097      0.7556      0.4834      0.2227       0.000    
   9    10.00       9.919       9.852       9.795       9.753       9.713       9.665       9.619       9.574       9.530    
        9.455       9.361       9.283       9.213       9.132       9.033       8.927       8.847       8.796       8.747    
        8.704       8.645       8.540       8.443       8.337       8.182       7.900       7.481       7.030       6.709    
        6.404       6.190       6.038       5.793       5.486       5.249       5.075       4.918       4.760       4.548    
        4.197       3.704       3.060       2.331       1.660       1.136      0.7708      0.4795      0.2378       0.000    
  10    10.00       9.918       9.849       9.802       9.765       9.726       9.684       9.644       9.591       9.521    
        9.430       9.335       9.259       9.182       9.097       8.981       8.875       8.811       8.766       8.718    
        8.672       8.575       8.462       8.355       8.206       7.972       7.548       7.096       6.745       6.505    
        6.325       6.152       5.946       5.695       5.438       5.262       5.135       5.006       4.829       4.584    
        4.207       3.667       2.979       2.328       1.798       1.301      0.8257      0.5093      0.2684       0.000    
  11    10.00       9.907       9.854       9.815       9.777       9.743       9.706       9.652       9.576       9.497    
        9.406       9.314       9.240       9.137       9.020       8.919       8.843       8.783       8.739       8.685    
        8.602       8.476       8.313       8.154       7.892       7.543       7.168       6.872       6.592       6.422    
        6.271       6.043       5.812       5.627       5.459       5.332       5.206       5.040       4.832       4.544    
        4.191       3.714       3.019       2.426       1.956       1.479      0.9520      0.5050      0.2028       0.000    
  12    10.00       9.915       9.863       9.821       9.790       9.754       9.712       9.639       9.550       9.468    
        9.382       9.289       9.190       9.066       8.969       8.882       8.803       8.753       8.695       8.612    
        8.450       8.234       8.004       7.766       7.442       7.176       6.982       6.677       6.450       6.318    
        6.159       5.946       5.765       5.612       5.505       5.391       5.242       5.054       4.805       4.504    
        4.156       3.691       3.054       2.525       2.100       1.586       1.002      0.4782      0.1590       0.000    
  13    10.00       9.933       9.885       9.840       9.800       9.759       9.697       9.607       9.514       9.433    
        9.342       9.249       9.143       9.016       8.905       8.818       8.762       8.697       8.615       8.417    
        8.120       7.858       7.610       7.313       7.060       6.943       6.703       6.427       6.313       6.206    
        6.037       5.855       5.728       5.626       5.540       5.435       5.265       5.031       4.788       4.478    
        4.133       3.660       3.003       2.509       2.114       1.552      0.9339      0.4327      0.1250       0.000    
  14    10.00       9.951       9.908       9.860       9.812       9.748       9.658       9.563       9.480       9.388    
        9.297       9.211       9.085       8.942       8.841       8.772       8.679       8.579       8.382       8.033    
        7.717       7.484       7.158       6.917       6.805       6.673       6.426       6.269       6.154       6.050    
        5.909       5.801       5.727       5.647       5.559       5.452       5.261       5.005       4.744       4.429    
        4.059       3.488       2.869       2.470       1.987       1.447      0.9206      0.3951      0.1017       0.000    
  15    10.00       9.961       9.917       9.869       9.813       9.717       9.607       9.524       9.440       9.351    
        9.282       9.181       9.016       8.859       8.766       8.643       8.517       8.390       8.057       7.649    
        7.389       7.059       6.763       6.674       6.607       6.434       6.237       6.083       6.002       5.928    
        5.846       5.787       5.732       5.666       5.573       5.442       5.221       4.931       4.657       4.366    
        3.966       3.410       2.875       2.338       1.754       1.270      0.7915      0.3480      0.1045       0.000    
  16    10.00       9.972       9.928       9.871       9.784       9.666       9.571       9.502       9.427       9.336    
        9.243       9.098       8.906       8.756       8.620       8.474       8.388       8.129       7.646       7.271    
        7.010       6.687       6.579       6.526       6.400       6.181       6.023       5.954       5.932       5.883    
        5.825       5.778       5.735       5.664       5.552       5.389       5.123       4.860       4.645       4.333    
        3.877       3.278       2.663       2.065       1.568       1.089      0.6742      0.3303      0.1114       0.000    
  17    10.00       9.971       9.925       9.850       9.742       9.623       9.544       9.481       9.397       9.294    
        9.139       8.954       8.781       8.617       8.449       8.308       8.096       7.662       7.212       6.955    
        6.699       6.503       6.419       6.296       6.097       5.936       5.896       5.891       5.879       5.839    
        5.795       5.761       5.721       5.655       5.493       5.269       5.042       4.857       4.653       4.261    
        3.651       3.039       2.451       1.863       1.341      0.8811      0.5650      0.2952      0.1213       0.000    
  18    10.00       9.965       9.911       9.821       9.685       9.590       9.527       9.441       9.344       9.201    
        9.012       8.848       8.674       8.452       8.231       7.997       7.687       7.248       6.914       6.690    
        6.483       6.320       6.191       6.015       5.880       5.840       5.831       5.830       5.811       5.783    
        5.760       5.735       5.690       5.576       5.407       5.217       5.028       4.863       4.577       4.051    
        3.427       2.774       2.144       1.661       1.244      0.8260      0.4852      0.2442      0.1170       0.000    
  19    10.00       9.956       9.897       9.766       9.630       9.574       9.504       9.399       9.278       9.124    
        8.952       8.797       8.544       8.207       7.944       7.704       7.330       6.933       6.709       6.537    
        6.324       6.126       5.984       5.850       5.785       5.772       5.769       5.752       5.725       5.719    
        5.709       5.689       5.623       5.514       5.373       5.191       5.020       4.782       4.290       3.742    
        3.237       2.561       1.961       1.577       1.164      0.7453      0.4382      0.2487      0.1274       0.000    
  20    10.00       9.947       9.847       9.712       9.613       9.553       9.476       9.363       9.229       9.089    
        8.911       8.675       8.296       7.962       7.729       7.433       7.063       6.847       6.643       6.404    
        6.171       5.993       5.846       5.752       5.705       5.682       5.654       5.648       5.635       5.643    
        5.645       5.628       5.559       5.459       5.316       5.158       4.944       4.511       3.976       3.538    
        2.988       2.364       1.914       1.543       1.125      0.6616      0.3829      0.2589      0.1334       0.000    
  21    10.00       9.911       9.804       9.692       9.595       9.531       9.448       9.316       9.183       9.050    
        8.812       8.449       8.065       7.813       7.553       7.242       6.968       6.763       6.518       6.267    
        6.043       5.870       5.741       5.642       5.576       5.527       5.511       5.520       5.524       5.542    
        5.561       5.536       5.467       5.374       5.230       5.057       4.722       4.264       3.841       3.308    
        2.786       2.293       1.913       1.537      0.9484      0.5360      0.3876      0.2925      0.1403       0.000    
  22    10.00       9.888       9.760       9.659       9.582       9.505       9.388       9.265       9.147       8.963    
        8.658       8.248       7.944       7.717       7.425       7.106       6.845       6.629       6.405       6.167    
        5.946       5.762       5.591       5.437       5.351       5.332       5.349       5.364       5.403       5.427    
        5.451       5.422       5.366       5.269       5.126       4.954       4.612       4.171       3.617       3.101    
        2.722       2.328       1.871       1.240      0.7404      0.5345      0.4064      0.2706      0.1001       0.000    
  23    10.00       9.855       9.730       9.651       9.569       9.454       9.326       9.235       9.085       8.854    
        8.498       8.148       7.929       7.646       7.268       6.951       6.746       6.570       6.361       6.106    
        5.872       5.658       5.412       5.123       4.913       4.956       5.093       5.182       5.263       5.318    
        5.341       5.327       5.275       5.185       5.051       4.858       4.512       3.967       3.411       3.046    
        2.697       2.200       1.543       1.001      0.7289      0.5453      0.3901      0.2302      9.1634E-02   0.000    
  24    10.00       9.833       9.742       9.647       9.531       9.410       9.312       9.210       9.067       8.761    
        8.427       8.169       7.921       7.543       7.129       6.901       6.728       6.556       6.319       6.078    
        5.870       5.598       5.204       4.658       3.991       4.263       4.669       4.952       5.120       5.207    
        5.251       5.244       5.205       5.106       4.955       4.711       4.272       3.756       3.338       2.958    
        2.530       1.974       1.386      0.9710      0.7306      0.5314      0.3561      0.2495      0.1225       0.000    
  25    10.00       9.852       9.759       9.639       9.518       9.407       9.309       9.216       9.000       8.704    
        8.446       8.185       7.861       7.447       7.140       6.936       6.740       6.532       6.316       6.109    
        5.870       5.609       5.046       4.007       2.158       3.533       4.278       4.722       4.996       5.140    
        5.193       5.191       5.143       5.006       4.799       4.464       4.048       3.641       3.284       2.839    
        2.321       1.790       1.293      0.9628      0.7575      0.5524      0.3753      0.2614      0.1627       0.000    
  26    10.00       9.871       9.782       9.655       9.525       9.424       9.321       9.182       8.969       8.763    
        8.522       8.165       7.769       7.433       7.201       7.002       6.774       6.519       6.310       6.136    
        5.938       5.680       5.193       4.428       3.581       3.936       4.385       4.716       4.971       5.126    
        5.169       5.155       5.072       4.906       4.676       4.356       3.896       3.509       3.173       2.631    
        2.044       1.577       1.281       1.051      0.8169      0.5965      0.4092      0.2840      0.1660       0.000    
  27    10.00       9.898       9.786       9.673       9.561       9.441       9.326       9.186       9.011       8.822    
        8.518       8.117       7.770       7.492       7.296       7.067       6.771       6.505       6.341       6.199    
        6.043       5.805       5.436       4.984       4.526       4.494       4.665       4.877       5.065       5.155    
        5.165       5.135       5.037       4.854       4.584       4.149       3.714       3.392       2.879       2.307    
        1.849       1.549       1.326       1.124      0.8931      0.6511      0.4445      0.3126      0.1972       0.000    
  28    10.00       9.904       9.813       9.710       9.600       9.474       9.346       9.211       9.059       8.839    
        8.485       8.136       7.833       7.560       7.353       7.129       6.887       6.630       6.398       6.250    
        6.126       5.956       5.718       5.389       5.108       4.942       4.976       5.110       5.175       5.198    
        5.178       5.125       5.002       4.768       4.407       3.954       3.575       3.120       2.582       2.174    
        1.847       1.592       1.374       1.164      0.9385      0.7106      0.5044      0.3560      0.2035       0.000    
  29    10.00       9.911       9.822       9.741       9.633       9.520       9.395       9.257       9.090       8.797    
        8.467       8.171       7.884       7.654       7.418       7.181       6.961       6.754       6.531       6.336    
        6.203       6.072       5.914       5.718       5.450       5.319       5.302       5.307       5.310       5.269    
        5.203       5.096       4.946       4.642       4.196       3.791       3.404       2.926       2.494       2.193    
        1.927       1.648       1.400       1.199      0.9956      0.7517      0.5331      0.3721      0.2064       0.000    
  30    10.00       9.923       9.849       9.778       9.682       9.570       9.458       9.301       9.078       8.811    
        8.478       8.158       7.924       7.694       7.471       7.256       7.079       6.887       6.670       6.463    
        6.298       6.187       6.053       5.920       5.774       5.655       5.612       5.518       5.455       5.353    
        5.215       5.030       4.811       4.487       4.131       3.748       3.332       2.882       2.553       2.279    
        1.962       1.682       1.466       1.236      0.9944      0.7782      0.5684      0.3953      0.2222       0.000    
  31    10.00       9.939       9.878       9.811       9.739       9.649       9.523       9.328       9.074       8.793    
        8.474       8.188       7.974       7.750       7.543       7.345       7.168       7.019       6.801       6.593    
        6.442       6.323       6.218       6.115       6.040       5.929       5.810       5.704       5.570       5.410    
        5.188       4.944       4.715       4.446       4.104       3.696       3.273       2.901       2.667       2.406    
        2.055       1.746       1.499       1.266       1.041      0.8190      0.6026      0.4162      0.2155       0.000    
  32    10.00       9.947       9.904       9.846       9.778       9.693       9.558       9.336       9.106       8.840    
        8.511       8.246       8.045       7.815       7.596       7.435       7.281       7.104       6.929       6.725    
        6.569       6.444       6.350       6.262       6.175       6.085       5.944       5.810       5.644       5.422    
        5.162       4.912       4.670       4.408       4.071       3.702       3.369       3.051       2.783       2.484    
        2.159       1.853       1.593       1.325       1.080      0.8912      0.6649      0.4086      0.1825       0.000    
  33    10.00       9.956       9.922       9.872       9.803       9.713       9.539       9.321       9.135       8.898    
        8.597       8.347       8.110       7.854       7.662       7.525       7.391       7.210       7.018       6.844    
        6.671       6.544       6.429       6.332       6.253       6.164       6.021       5.840       5.663       5.449    
        5.186       4.955       4.698       4.372       4.054       3.725       3.454       3.203       2.900       2.570    
        2.289       1.998       1.712       1.435       1.176      0.9656      0.7120      0.4110      0.1787       0.000    
  34    10.00       9.963       9.938       9.896       9.807       9.675       9.515       9.364       9.172       8.938    
        8.684       8.412       8.149       7.899       7.741       7.629       7.485       7.312       7.097       6.930    
        6.776       6.618       6.494       6.396       6.318       6.208       6.043       5.869       5.678       5.430    
        5.197       5.005       4.755       4.437       4.117       3.811       3.554       3.306       2.991       2.691    
        2.439       2.159       1.846       1.569       1.307       1.065      0.7620      0.4627      0.2426       0.000    
  35    10.00       9.970       9.938       9.879       9.770       9.642       9.528       9.398       9.244       8.993    
        8.715       8.446       8.182       7.975       7.832       7.715       7.562       7.381       7.174       6.976    
        6.826       6.679       6.553       6.459       6.372       6.260       6.078       5.870       5.645       5.387    
        5.210       5.012       4.755       4.521       4.252       3.928       3.641       3.431       3.132       2.811    
        2.566       2.280       1.966       1.693       1.421       1.155      0.8737      0.5791      0.2865       0.000    
  36    10.00       9.963       9.913       9.849       9.748       9.630       9.535       9.424       9.258       9.019    
        8.719       8.436       8.248       8.088       7.948       7.798       7.620       7.438       7.222       6.971    
        6.807       6.696       6.584       6.505       6.417       6.276       6.075       5.845       5.571       5.333    
        5.177       5.016       4.791       4.564       4.338       4.047       3.760       3.535       3.267       2.916    
        2.648       2.328       2.014       1.806       1.541       1.246      0.9639      0.6560      0.3209       0.000    
  37    10.00       9.944       9.891       9.827       9.729       9.626       9.519       9.414       9.264       8.987    
        8.677       8.460       8.347       8.195       8.022       7.874       7.660       7.436       7.169       6.918    
        6.801       6.708       6.601       6.516       6.414       6.245       6.040       5.746       5.492       5.330    
        5.190       5.015       4.792       4.612       4.380       4.105       3.880       3.663       3.362       2.976    
        2.624       2.324       2.106       1.890       1.625       1.345       1.062      0.7234      0.3972       0.000    
  38    10.00       9.937       9.869       9.802       9.717       9.619       9.507       9.394       9.223       8.964    
        8.733       8.560       8.416       8.280       8.096       7.861       7.623       7.370       7.074       6.901    
        6.806       6.687       6.581       6.509       6.395       6.202       5.903       5.624       5.486       5.360    
        5.212       5.026       4.823       4.643       4.416       4.165       3.980       3.759       3.374       2.950    
        2.644       2.393       2.177       1.954       1.719       1.434       1.153      0.8366      0.4135       0.000    
  39    10.00       9.919       9.853       9.793       9.712       9.602       9.484       9.368       9.208       8.997    
        8.816       8.684       8.524       8.339       8.081       7.793       7.526       7.233       7.021       6.905    
        6.769       6.632       6.551       6.482       6.373       6.119       5.813       5.638       5.510       5.380    
        5.214       5.036       4.840       4.660       4.487       4.280       4.037       3.769       3.391       2.995    
        2.672       2.413       2.242       2.055       1.791       1.509       1.224      0.8708      0.4080       0.000    
  40    10.00       9.911       9.848       9.788       9.704       9.592       9.477       9.363       9.221       9.045    
        8.896       8.781       8.590       8.309       7.990       7.701       7.420       7.167       7.009       6.870    
        6.714       6.593       6.522       6.439       6.294       6.068       5.857       5.680       5.535       5.400    
        5.237       5.045       4.859       4.708       4.556       4.347       4.066       3.786       3.400       2.976    
        2.673       2.468       2.280       2.121       1.842       1.534       1.273      0.8731      0.4065       0.000    
  41    10.00       9.919       9.847       9.775       9.686       9.597       9.501       9.395       9.255       9.096    
        8.954       8.817       8.576       8.247       7.918       7.647       7.370       7.127       6.974       6.824    
        6.668       6.561       6.484       6.385       6.234       6.062       5.918       5.746       5.565       5.406    
        5.250       5.075       4.897       4.765       4.603       4.394       4.113       3.726       3.284       2.957    
        2.737       2.539       2.344       2.122       1.832       1.537       1.314      0.9301      0.4217       0.000    
  42    10.00       9.919       9.837       9.774       9.709       9.627       9.525       9.405       9.286       9.165    
        8.987       8.756       8.478       8.164       7.859       7.612       7.341       7.103       6.939       6.770    
        6.625       6.530       6.446       6.355       6.216       6.095       5.973       5.778       5.575       5.432    
        5.303       5.112       4.921       4.792       4.643       4.420       4.074       3.617       3.212       2.969    
        2.803       2.626       2.378       2.082       1.804       1.573       1.342      0.9810      0.4840       0.000    
  43    10.00       9.913       9.844       9.790       9.738       9.660       9.560       9.446       9.315       9.130    
        8.904       8.668       8.407       8.080       7.806       7.577       7.334       7.095       6.887       6.730    
        6.598       6.503       6.431       6.356       6.237       6.110       5.986       5.785       5.608       5.502    
        5.345       5.139       4.954       4.822       4.647       4.358       3.958       3.526       3.230       3.043    
        2.867       2.663       2.359       2.056       1.810       1.587       1.388      0.9948      0.4546       0.000    
  44    10.00       9.912       9.853       9.804       9.742       9.684       9.601       9.451       9.259       9.048    
        8.858       8.619       8.304       8.031       7.811       7.549       7.283       7.032       6.826       6.688    
        6.591       6.508       6.434       6.356       6.254       6.124       5.957       5.790       5.670       5.543    
        5.402       5.222       5.010       4.809       4.596       4.272       3.853       3.497       3.268       3.088    
        2.910       2.668       2.374       2.112       1.849       1.610       1.365      0.8981      0.4130       0.000    
  45    10.00       9.922       9.866       9.803       9.743       9.692       9.560       9.383       9.189       9.007    
        8.851       8.532       8.206       8.007       7.771       7.482       7.193       6.961       6.794       6.683    
        6.608       6.530       6.448       6.355       6.242       6.115       5.974       5.845       5.739       5.608    
        5.444       5.258       5.040       4.785       4.530       4.182       3.788       3.508       3.334       3.148    
        2.911       2.634       2.382       2.143       1.910       1.672       1.275      0.7981      0.4017       0.000    
  46    10.00       9.937       9.878       9.804       9.735       9.636       9.492       9.358       9.196       9.001    
        8.744       8.441       8.179       7.927       7.677       7.397       7.128       6.956       6.819       6.712    
        6.636       6.561       6.457       6.341       6.232       6.124       6.013       5.894       5.787       5.671    
        5.524       5.328       5.080       4.778       4.414       4.052       3.761       3.562       3.381       3.187    
        2.907       2.612       2.361       2.171       1.949       1.639       1.187      0.7624      0.3759       0.000    
  47    10.00       9.949       9.893       9.819       9.702       9.572       9.449       9.344       9.195       8.939    
        8.631       8.353       8.125       7.915       7.649       7.344       7.107       6.944       6.834       6.745    
        6.663       6.574       6.466       6.344       6.237       6.152       6.059       5.942       5.819       5.705    
        5.577       5.413       5.084       4.661       4.305       4.045       3.801       3.630       3.469       3.201    
        2.860       2.547       2.320       2.189       1.943       1.563       1.123      0.7355      0.3716       0.000    
  48    10.00       9.954       9.896       9.788       9.667       9.555       9.431       9.325       9.174       8.886    
        8.549       8.317       8.130       7.873       7.563       7.288       7.109       6.945       6.836       6.766    
        6.683       6.577       6.461       6.349       6.260       6.192       6.109       5.980       5.838       5.715    
        5.581       5.383       5.041       4.689       4.372       4.085       3.867       3.692       3.486       3.146    
        2.778       2.538       2.357       2.125       1.802       1.465       1.087      0.7408      0.3922       0.000    
  49    10.00       9.952       9.865       9.760       9.669       9.548       9.428       9.316       9.126       8.821    
        8.520       8.298       8.065       7.804       7.570       7.314       7.066       6.913       6.846       6.781    
        6.703       6.581       6.446       6.348       6.281       6.230       6.135       5.986       5.837       5.725    
        5.579       5.319       5.017       4.769       4.503       4.186       3.904       3.688       3.446       3.081    
        2.785       2.574       2.324       1.989       1.703       1.400       1.069      0.7531      0.3835       0.000    
  50    10.00       9.939       9.843       9.748       9.675       9.562       9.429       9.286       9.081       8.840    
        8.535       8.237       7.994       7.787       7.599       7.312       7.029       6.914       6.855       6.792    
        6.716       6.579       6.435       6.346       6.293       6.246       6.140       5.979       5.837       5.723    
        5.564       5.291       5.058       4.845       4.558       4.243       3.957       3.670       3.322       2.998    
        2.841       2.619       2.255       1.918       1.678       1.389       1.102      0.7356      0.3022       0.000    

 HEAD WILL BE SAVED ON UNIT   51 AT END OF TIME STEP  66, STRESS PERIOD    2

 DRAWDOWN WILL BE SAVED ON UNIT   52 AT END OF TIME STEP  66, STRESS PERIOD    2
1
  VOLUMETRIC BUDGET FOR ENTIRE MODEL AT END OF TIME STEP 66 IN STRESS PERIOD   2
  ------------------------------------------------------------------------------

     CUMULATIVE VOLUMES      L**3       RATES FOR THIS TIME STEP      L**3/T
     ------------------                 ------------------------

           IN:                                      IN:
           ---                                      ---
             STORAGE =       31541.7637               STORAGE =         428.9667
       CONSTANT HEAD =       37576.1211         CONSTANT HEAD =         606.9358
               WELLS =           0.0000                 WELLS =           0.0000

            TOTAL IN =       69117.8828              TOTAL IN =        1035.9025

          OUT:                                     OUT:
          ----                                     ----
             STORAGE =       9.3745E-03               STORAGE =           0.0000
       CONSTANT HEAD =       36117.8594         CONSTANT HEAD =         535.9027
               WELLS =       33000.0000                 WELLS =         500.0000

           TOTAL OUT =       69117.8672             TOTAL OUT =        1035.9027

            IN - OUT =       1.5625E-02              IN - OUT =      -2.4414E-04

 PERCENT DISCREPANCY =           0.00     PERCENT DISCREPANCY =           0.00






          TIME SUMMARY AT END OF TIME STEP  66 IN STRESS PERIOD    2
                    SECONDS     MINUTES      HOURS       DAYS        YEARS
                    -----------------------------------------------------------
   TIME STEP LENGTH  86400.      1440.0      24.000      1.0000     2.73785E-03
 STRESS PERIOD TIME 5.70240E+06  95040.      1584.0      66.000     0.18070    
         TOTAL TIME 5.78880E+06  96480.      1608.0      67.000     0.18344    
1
 
 SOLVING FOR HEAD 

 OUTPUT CONTROL FOR STRESS PERIOD    2   TIME STEP  67
    SAVE HEAD FOR ALL LAYERS
    SAVE DRAWDOWN FOR ALL LAYERS
    SAVE BUDGET
    PRINT HEAD FOR ALL LAYERS
    PRINT BUDGET
 UBDSV1 SAVING "         STORAGE" ON UNIT  53 AT TIME STEP 67, STRESS PERIOD   2
 UBDSV2 SAVING "   CONSTANT HEAD" ON UNIT  53 AT TIME STEP 67, STRESS PERIOD   2
 UBDSV1 SAVING "FLOW RIGHT FACE " ON UNIT  53 AT TIME STEP 67, STRESS PERIOD   2
 UBDSV1 SAVING "FLOW FRONT FACE " ON UNIT  53 AT TIME STEP 67, STRESS PERIOD   2
1
              HEAD IN LAYER   1 AT END OF TIME STEP  67 IN STRESS PERIOD    2
  ---------------------------------------------------------------------------

            1           2           3           4           5           6           7           8           9          10
           11          12          13          14          15          16          17          18          19          20
           21          22          23          24          25          26          27          28          29          30
           31          32          33          34          35          36          37          38          39          40
           41          42          43          44          45          46          47          48          49          50
 ........................................................................................................................
   1    10.00       9.954       9.892       9.829       9.778       9.714       9.652       9.587       9.499       9.428    
        9.386       9.343       9.296       9.250       9.176       9.094       9.005       8.936       8.905       8.870    
        8.828       8.792       8.755       8.709       8.645       8.534       8.401       8.271       8.123       7.975    
        7.766       7.433       7.042       6.629       6.167       5.740       5.378       5.042       4.584       4.086    
        3.663       3.245       2.669       2.122       1.739       1.355       1.034      0.8260      0.5478       0.000    
   2    10.00       9.954       9.898       9.835       9.780       9.721       9.652       9.567       9.483       9.428    
        9.390       9.352       9.316       9.258       9.172       9.088       9.007       8.939       8.905       8.866    
        8.823       8.796       8.766       8.717       8.644       8.538       8.403       8.268       8.129       7.982    
        7.755       7.412       7.000       6.533       6.067       5.655       5.331       5.002       4.537       4.070    
        3.643       3.141       2.620       2.188       1.808       1.451       1.084      0.7844      0.4188       0.000    
   3    10.00       9.949       9.896       9.838       9.782       9.715       9.629       9.547       9.494       9.444    
        9.400       9.367       9.331       9.277       9.191       9.086       9.000       8.944       8.902       8.863    
        8.827       8.798       8.768       8.706       8.627       8.519       8.392       8.290       8.142       7.968    
        7.676       7.276       6.835       6.382       5.954       5.572       5.284       4.944       4.440       3.986    
        3.630       3.174       2.697       2.282       1.888       1.528       1.094      0.6729      0.2960       0.000    
   4    10.00       9.953       9.899       9.836       9.767       9.689       9.607       9.546       9.501       9.453    
        9.415       9.387       9.348       9.289       9.211       9.095       9.000       8.948       8.902       8.865    
        8.824       8.789       8.752       8.686       8.605       8.500       8.375       8.261       8.146       7.927    
        7.547       7.057       6.584       6.237       5.920       5.552       5.182       4.750       4.324       3.995    
        3.680       3.277       2.800       2.392       1.979       1.543       1.043      0.5975      0.2783       0.000    
   5    10.00       9.950       9.892       9.821       9.749       9.676       9.605       9.554       9.506       9.465    
        9.432       9.403       9.356       9.287       9.196       9.091       9.009       8.952       8.905       8.853    
        8.805       8.769       8.722       8.655       8.579       8.458       8.334       8.235       8.120       7.838    
        7.337       6.795       6.406       6.143       5.857       5.486       5.064       4.639       4.340       4.061    
        3.779       3.365       2.869       2.513       2.093       1.523      0.9491      0.5514      0.2774       0.000    
   6    10.00       9.938       9.869       9.813       9.746       9.670       9.610       9.564       9.515       9.477    
        9.447       9.410       9.351       9.270       9.191       9.104       9.016       8.945       8.884       8.825    
        8.783       8.744       8.700       8.629       8.516       8.401       8.308       8.201       8.006       7.599    
        7.039       6.547       6.250       6.054       5.823       5.416       4.960       4.626       4.406       4.164    
        3.892       3.519       3.028       2.586       2.068       1.457      0.8511      0.4849      0.2710       0.000    
   7    10.00       9.920       9.855       9.801       9.736       9.682       9.624       9.576       9.535       9.495    
        9.455       9.402       9.330       9.252       9.181       9.109       9.010       8.913       8.849       8.800    
        8.759       8.716       8.671       8.575       8.460       8.367       8.266       8.091       7.758       7.238    
        6.709       6.327       6.145       5.995       5.700       5.296       4.997       4.710       4.475       4.309    
        4.035       3.651       3.126       2.554       1.915       1.214      0.7135      0.4924      0.2494       0.000    
   8    10.00       9.915       9.855       9.797       9.739       9.691       9.641       9.595       9.555       9.516    
        9.458       9.381       9.305       9.237       9.169       9.080       8.963       8.872       8.823       8.777    
        8.727       8.692       8.616       8.512       8.409       8.300       8.106       7.828       7.371       6.920    
        6.530       6.232       6.096       5.912       5.578       5.269       5.023       4.813       4.627       4.433    
        4.150       3.677       3.072       2.419       1.691       1.096      0.7550      0.4830      0.2226       0.000    
   9    10.00       9.919       9.851       9.794       9.752       9.712       9.664       9.618       9.572       9.528    
        9.453       9.359       9.280       9.210       9.129       9.029       8.923       8.843       8.792       8.743    
        8.700       8.641       8.535       8.438       8.332       8.177       7.894       7.475       7.023       6.702    
        6.396       6.183       6.031       5.786       5.480       5.242       5.069       4.912       4.754       4.543    
        4.192       3.700       3.057       2.329       1.659       1.135      0.7703      0.4792      0.2376       0.000    
  10    10.00       9.917       9.849       9.801       9.765       9.725       9.683       9.643       9.590       9.519    
        9.428       9.333       9.256       9.179       9.094       8.978       8.871       8.807       8.762       8.713    
        8.668       8.570       8.457       8.350       8.201       7.966       7.541       7.089       6.737       6.497    
        6.317       6.144       5.938       5.688       5.431       5.255       5.128       4.999       4.823       4.578    
        4.202       3.664       2.976       2.326       1.796       1.300      0.8251      0.5090      0.2683       0.000    
  11    10.00       9.906       9.854       9.814       9.777       9.742       9.705       9.651       9.575       9.495    
        9.404       9.311       9.237       9.134       9.017       8.915       8.839       8.779       8.735       8.681    
        8.598       8.471       8.307       8.148       7.885       7.536       7.160       6.863       6.584       6.413    
        6.263       6.034       5.803       5.619       5.451       5.325       5.200       5.034       4.826       4.539    
        4.186       3.711       3.016       2.424       1.954       1.478      0.9513      0.5046      0.2026       0.000    
  12    10.00       9.915       9.862       9.820       9.789       9.753       9.711       9.638       9.548       9.466    
        9.379       9.286       9.186       9.062       8.965       8.878       8.799       8.749       8.690       8.607    
        8.444       8.228       7.997       7.759       7.433       7.167       6.973       6.668       6.440       6.309    
        6.150       5.937       5.757       5.604       5.497       5.383       5.234       5.047       4.799       4.499    
        4.151       3.687       3.051       2.523       2.098       1.585       1.002      0.4779      0.1589       0.000    
  13    10.00       9.933       9.885       9.840       9.799       9.758       9.696       9.605       9.512       9.431    
        9.339       9.246       9.140       9.012       8.901       8.813       8.757       8.692       8.610       8.411    
        8.113       7.850       7.602       7.304       7.051       6.933       6.693       6.417       6.303       6.196    
        6.027       5.846       5.719       5.617       5.531       5.427       5.257       5.024       4.781       4.472    
        4.128       3.656       3.000       2.506       2.113       1.551      0.9333      0.4324      0.1249       0.000    
  14    10.00       9.951       9.907       9.859       9.811       9.747       9.657       9.562       9.477       9.385    
        9.294       9.207       9.082       8.938       8.836       8.767       8.674       8.574       8.376       8.026    
        7.708       7.475       7.148       6.906       6.794       6.663       6.415       6.258       6.143       6.039    
        5.898       5.790       5.717       5.638       5.550       5.443       5.253       4.998       4.738       4.423    
        4.054       3.484       2.867       2.468       1.986       1.446      0.9200      0.3948      0.1017       0.000    
  15    10.00       9.961       9.917       9.869       9.813       9.716       9.605       9.521       9.438       9.349    
        9.279       9.178       9.012       8.855       8.761       8.637       8.511       8.383       8.049       7.640    
        7.379       7.048       6.752       6.663       6.596       6.423       6.225       6.071       5.990       5.916    
        5.835       5.776       5.722       5.656       5.563       5.433       5.213       4.923       4.650       4.360    
        3.960       3.406       2.872       2.336       1.752       1.269      0.7909      0.3478      0.1044       0.000    
  16    10.00       9.971       9.928       9.871       9.783       9.664       9.569       9.500       9.425       9.333    
        9.239       9.094       8.901       8.751       8.615       8.468       8.382       8.122       7.637       7.261    
        6.999       6.676       6.568       6.515       6.388       6.169       6.011       5.941       5.920       5.872    
        5.814       5.767       5.724       5.654       5.542       5.380       5.115       4.853       4.638       4.327    
        3.872       3.274       2.660       2.063       1.566       1.088      0.6737      0.3301      0.1113       0.000    
  17    10.00       9.971       9.925       9.850       9.741       9.622       9.542       9.479       9.394       9.291    
        9.135       8.949       8.776       8.611       8.442       8.301       8.088       7.652       7.202       6.944    
        6.688       6.492       6.407       6.284       6.084       5.923       5.883       5.879       5.867       5.827    
        5.784       5.750       5.710       5.644       5.483       5.260       5.033       4.849       4.646       4.255    
        3.646       3.035       2.448       1.862       1.340      0.8804      0.5645      0.2950      0.1212       0.000    
  18    10.00       9.964       9.910       9.820       9.683       9.588       9.524       9.439       9.341       9.197    
        9.007       8.842       8.668       8.445       8.223       7.988       7.678       7.238       6.902       6.678    
        6.471       6.307       6.178       6.002       5.867       5.827       5.818       5.818       5.798       5.770    
        5.748       5.723       5.678       5.565       5.396       5.208       5.019       4.855       4.569       4.045    
        3.422       2.771       2.142       1.659       1.243      0.8253      0.4849      0.2440      0.1170       0.000    
  19    10.00       9.956       9.896       9.765       9.629       9.572       9.501       9.396       9.275       9.120    
        8.947       8.791       8.537       8.199       7.935       7.694       7.320       6.921       6.697       6.525    
        6.312       6.113       5.971       5.837       5.772       5.759       5.755       5.739       5.712       5.706    
        5.697       5.677       5.611       5.503       5.362       5.181       5.010       4.774       4.283       3.737    
        3.233       2.558       1.959       1.576       1.163      0.7447      0.4379      0.2485      0.1273       0.000    
  20    10.00       9.946       9.846       9.711       9.611       9.550       9.474       9.360       9.225       9.084    
        8.906       8.668       8.289       7.953       7.720       7.422       7.051       6.835       6.631       6.392    
        6.158       5.980       5.833       5.739       5.692       5.669       5.640       5.634       5.621       5.630    
        5.632       5.616       5.547       5.448       5.305       5.148       4.935       4.503       3.970       3.533    
        2.984       2.361       1.913       1.542       1.124      0.6611      0.3826      0.2587      0.1333       0.000    
  21    10.00       9.911       9.803       9.690       9.593       9.528       9.445       9.312       9.178       9.045    
        8.806       8.442       8.056       7.804       7.543       7.230       6.956       6.751       6.506       6.254    
        6.030       5.857       5.728       5.629       5.563       5.513       5.497       5.506       5.511       5.528    
        5.548       5.523       5.454       5.362       5.218       5.047       4.713       4.256       3.835       3.303    
        2.782       2.290       1.911       1.535      0.9476      0.5356      0.3874      0.2923      0.1402       0.000    
  22    10.00       9.888       9.759       9.657       9.580       9.502       9.385       9.261       9.143       8.958    
        8.651       8.240       7.934       7.706       7.414       7.095       6.833       6.616       6.392       6.154    
        5.932       5.749       5.577       5.423       5.337       5.318       5.335       5.350       5.389       5.413    
        5.437       5.409       5.353       5.256       5.114       4.944       4.603       4.164       3.612       3.097    
        2.719       2.325       1.869       1.239      0.7399      0.5342      0.4062      0.2705      0.1001       0.000    
  23    10.00       9.855       9.729       9.649       9.567       9.451       9.323       9.230       9.080       8.849    
        8.490       8.139       7.919       7.635       7.256       6.939       6.733       6.558       6.349       6.093    
        5.859       5.644       5.398       5.109       4.899       4.942       5.079       5.168       5.249       5.304    
        5.327       5.313       5.262       5.172       5.039       4.847       4.503       3.960       3.406       3.042    
        2.694       2.198       1.541       1.000      0.7284      0.5449      0.3899      0.2301      9.1583E-02   0.000    
  24    10.00       9.832       9.741       9.645       9.528       9.407       9.309       9.206       9.062       8.755    
        8.419       8.160       7.911       7.532       7.117       6.889       6.716       6.543       6.306       6.065    
        5.857       5.585       5.190       4.644       3.977       4.248       4.655       4.938       5.106       5.193    
        5.237       5.230       5.192       5.093       4.944       4.701       4.264       3.749       3.334       2.955    
        2.527       1.972       1.385      0.9704      0.7301      0.5311      0.3559      0.2494      0.1224       0.000    
  25    10.00       9.851       9.758       9.637       9.515       9.404       9.306       9.211       8.995       8.697    
        8.439       8.177       7.851       7.436       7.128       6.924       6.727       6.520       6.303       6.095    
        5.856       5.596       5.032       3.992       2.143       3.518       4.263       4.707       4.982       5.125    
        5.178       5.177       5.130       4.993       4.787       4.454       4.040       3.635       3.279       2.835    
        2.319       1.789       1.293      0.9623      0.7571      0.5521      0.3751      0.2613      0.1626       0.000    
  26    10.00       9.871       9.780       9.653       9.522       9.421       9.317       9.178       8.964       8.757    
        8.515       8.156       7.759       7.422       7.190       6.990       6.762       6.506       6.297       6.123    
        5.924       5.666       5.179       4.414       3.567       3.921       4.370       4.701       4.956       5.111    
        5.154       5.141       5.059       4.894       4.665       4.347       3.889       3.503       3.168       2.628    
        2.042       1.576       1.280       1.051      0.8165      0.5962      0.4090      0.2839      0.1659       0.000    
  27    10.00       9.897       9.785       9.671       9.558       9.439       9.322       9.182       9.006       8.816    
        8.511       8.109       7.760       7.481       7.285       7.056       6.759       6.492       6.328       6.186    
        6.030       5.792       5.422       4.970       4.511       4.479       4.650       4.861       5.050       5.140    
        5.151       5.121       5.024       4.842       4.574       4.141       3.708       3.387       2.876       2.304    
        1.848       1.548       1.325       1.124      0.8926      0.6507      0.4443      0.3125      0.1972       0.000    
  28    10.00       9.904       9.812       9.709       9.598       9.472       9.343       9.208       9.055       8.834    
        8.478       8.128       7.824       7.550       7.342       7.118       6.875       6.617       6.385       6.237    
        6.113       5.943       5.704       5.375       5.093       4.927       4.961       5.095       5.160       5.184    
        5.164       5.112       4.990       4.757       4.398       3.947       3.570       3.116       2.580       2.172    
        1.846       1.591       1.373       1.163      0.9380      0.7102      0.5042      0.3559      0.2034       0.000    
  29    10.00       9.911       9.821       9.739       9.631       9.518       9.392       9.253       9.086       8.791    
        8.460       8.163       7.875       7.644       7.408       7.170       6.950       6.742       6.519       6.324    
        6.190       6.059       5.901       5.704       5.436       5.304       5.287       5.293       5.295       5.255    
        5.190       5.084       4.934       4.632       4.189       3.785       3.399       2.923       2.492       2.192    
        1.926       1.647       1.399       1.198      0.9951      0.7513      0.5329      0.3720      0.2063       0.000    
  30    10.00       9.923       9.848       9.777       9.681       9.568       9.455       9.298       9.073       8.806    
        8.471       8.150       7.915       7.685       7.461       7.246       7.068       6.875       6.658       6.451    
        6.285       6.175       6.040       5.906       5.760       5.641       5.598       5.504       5.441       5.340    
        5.202       5.019       4.802       4.479       4.125       3.743       3.328       2.879       2.551       2.277    
        1.961       1.681       1.465       1.236      0.9939      0.7778      0.5682      0.3952      0.2221       0.000    
  31    10.00       9.939       9.878       9.810       9.738       9.647       9.520       9.325       9.070       8.788    
        8.467       8.180       7.965       7.741       7.533       7.335       7.158       7.008       6.789       6.581    
        6.430       6.311       6.206       6.103       6.027       5.916       5.796       5.691       5.557       5.398    
        5.177       4.935       4.707       4.439       4.099       3.692       3.269       2.899       2.665       2.405    
        2.054       1.745       1.498       1.266       1.041      0.8187      0.6024      0.4160      0.2154       0.000    
  32    10.00       9.947       9.903       9.845       9.777       9.691       9.556       9.333       9.102       8.835    
        8.504       8.239       8.037       7.806       7.587       7.426       7.271       7.093       6.918       6.714    
        6.557       6.432       6.337       6.250       6.163       6.073       5.932       5.798       5.632       5.412    
        5.153       4.904       4.663       4.402       4.066       3.698       3.366       3.049       2.781       2.483    
        2.158       1.853       1.592       1.324       1.079      0.8909      0.6647      0.4085      0.1824       0.000    
  33    10.00       9.956       9.921       9.871       9.803       9.712       9.537       9.318       9.131       8.893    
        8.591       8.340       8.102       7.845       7.653       7.516       7.382       7.200       7.007       6.833    
        6.659       6.532       6.418       6.321       6.242       6.152       6.010       5.829       5.653       5.440    
        5.178       4.948       4.692       4.367       4.050       3.721       3.451       3.201       2.898       2.569    
        2.288       1.998       1.711       1.434       1.176      0.9654      0.7118      0.4109      0.1786       0.000    
  34    10.00       9.963       9.937       9.895       9.806       9.674       9.513       9.361       9.169       8.934    
        8.678       8.406       8.141       7.892       7.733       7.620       7.476       7.303       7.087       6.919    
        6.765       6.607       6.483       6.386       6.307       6.197       6.033       5.860       5.669       5.422    
        5.191       4.999       4.750       4.432       4.114       3.808       3.552       3.304       2.989       2.690    
        2.438       2.158       1.845       1.569       1.307       1.065      0.7619      0.4626      0.2426       0.000    
  35    10.00       9.970       9.938       9.878       9.769       9.641       9.526       9.395       9.241       8.989    
        8.710       8.440       8.175       7.968       7.825       7.706       7.554       7.372       7.164       6.966    
        6.816       6.670       6.544       6.450       6.363       6.250       6.069       5.861       5.638       5.381    
        5.204       5.008       4.751       4.518       4.249       3.926       3.639       3.430       3.131       2.810    
        2.566       2.279       1.965       1.693       1.420       1.155      0.8736      0.5790      0.2864       0.000    
  36    10.00       9.963       9.912       9.848       9.747       9.628       9.533       9.422       9.256       9.015    
        8.715       8.431       8.242       8.082       7.941       7.791       7.612       7.430       7.213       6.963    
        6.799       6.688       6.576       6.497       6.408       6.268       6.067       5.838       5.566       5.328    
        5.173       5.013       4.788       4.561       4.335       4.045       3.759       3.533       3.265       2.915    
        2.647       2.328       2.014       1.806       1.541       1.246      0.9637      0.6559      0.3209       0.000    
  37    10.00       9.944       9.890       9.826       9.728       9.625       9.517       9.412       9.261       8.983    
        8.672       8.455       8.342       8.189       8.015       7.867       7.652       7.429       7.162       6.911    
        6.794       6.701       6.593       6.509       6.407       6.238       6.034       5.741       5.488       5.327    
        5.187       5.012       4.790       4.610       4.378       4.104       3.879       3.662       3.361       2.975    
        2.624       2.324       2.106       1.890       1.624       1.344       1.062      0.7233      0.3972       0.000    
  38    10.00       9.936       9.868       9.802       9.716       9.618       9.506       9.392       9.221       8.961    
        8.729       8.555       8.411       8.274       8.090       7.855       7.617       7.364       7.068       6.894    
        6.800       6.681       6.575       6.502       6.389       6.196       5.898       5.620       5.482       5.357    
        5.209       5.023       4.820       4.641       4.414       4.163       3.978       3.758       3.373       2.949    
        2.644       2.393       2.176       1.953       1.718       1.434       1.153      0.8365      0.4134       0.000    
  39    10.00       9.919       9.853       9.793       9.711       9.601       9.483       9.366       9.206       8.994    
        8.813       8.680       8.519       8.334       8.076       7.787       7.521       7.228       7.015       6.899    
        6.763       6.627       6.546       6.477       6.369       6.114       5.809       5.635       5.507       5.378    
        5.211       5.034       4.838       4.658       4.486       4.279       4.036       3.768       3.390       2.994    
        2.671       2.412       2.242       2.055       1.790       1.509       1.223      0.8706      0.4080       0.000    
  40    10.00       9.911       9.847       9.787       9.704       9.591       9.476       9.361       9.219       9.043    
        8.894       8.778       8.586       8.305       7.986       7.697       7.415       7.162       7.004       6.865    
        6.709       6.589       6.518       6.435       6.290       6.065       5.854       5.677       5.532       5.398    
        5.235       5.043       4.858       4.706       4.555       4.345       4.064       3.785       3.399       2.975    
        2.673       2.468       2.280       2.120       1.842       1.534       1.273      0.8730      0.4064       0.000    
  41    10.00       9.919       9.846       9.774       9.685       9.596       9.500       9.394       9.253       9.094    
        8.952       8.815       8.573       8.243       7.914       7.644       7.366       7.123       6.970       6.820    
        6.664       6.558       6.481       6.382       6.231       6.059       5.916       5.743       5.562       5.404    
        5.248       5.073       4.895       4.763       4.602       4.393       4.112       3.725       3.283       2.956    
        2.737       2.538       2.344       2.122       1.832       1.537       1.313      0.9300      0.4217       0.000    
  42    10.00       9.919       9.837       9.774       9.708       9.627       9.525       9.404       9.285       9.163    
        8.985       8.754       8.475       8.161       7.856       7.609       7.338       7.099       6.935       6.767    
        6.621       6.527       6.443       6.352       6.214       6.092       5.970       5.776       5.573       5.430    
        5.301       5.110       4.919       4.791       4.641       4.418       4.073       3.617       3.212       2.968    
        2.803       2.625       2.378       2.082       1.804       1.573       1.341      0.9808      0.4839       0.000    
  43    10.00       9.912       9.844       9.789       9.737       9.659       9.559       9.445       9.314       9.129    
        8.903       8.666       8.405       8.078       7.803       7.574       7.331       7.092       6.884       6.727    
        6.595       6.501       6.428       6.353       6.235       6.108       5.984       5.783       5.606       5.500    
        5.343       5.137       4.952       4.820       4.645       4.357       3.957       3.525       3.230       3.043    
        2.867       2.663       2.359       2.055       1.810       1.587       1.387      0.9946      0.4545       0.000    
  44    10.00       9.912       9.852       9.804       9.741       9.683       9.601       9.450       9.258       9.046    
        8.857       8.617       8.302       8.029       7.809       7.547       7.280       7.030       6.824       6.686    
        6.588       6.506       6.432       6.353       6.251       6.122       5.955       5.788       5.668       5.541    
        5.400       5.220       5.009       4.807       4.594       4.271       3.852       3.496       3.267       3.087    
        2.909       2.668       2.374       2.111       1.848       1.610       1.365      0.8979      0.4130       0.000    
  45    10.00       9.922       9.866       9.803       9.743       9.692       9.559       9.382       9.188       9.006    
        8.850       8.531       8.204       8.005       7.770       7.480       7.191       6.959       6.791       6.680    
        6.606       6.528       6.446       6.353       6.240       6.113       5.972       5.843       5.737       5.606    
        5.442       5.256       5.038       4.784       4.529       4.181       3.787       3.507       3.333       3.147    
        2.910       2.634       2.382       2.142       1.910       1.672       1.275      0.7980      0.4016       0.000    
  46    10.00       9.937       9.878       9.804       9.735       9.636       9.492       9.358       9.195       9.000    
        8.743       8.440       8.178       7.925       7.675       7.395       7.126       6.954       6.816       6.710    
        6.634       6.558       6.455       6.339       6.229       6.122       6.010       5.892       5.785       5.669    
        5.522       5.326       5.078       4.776       4.413       4.051       3.760       3.562       3.380       3.186    
        2.906       2.611       2.360       2.171       1.948       1.638       1.187      0.7623      0.3758       0.000    
  47    10.00       9.949       9.892       9.819       9.702       9.571       9.448       9.343       9.194       8.938    
        8.629       8.352       8.124       7.913       7.647       7.342       7.105       6.942       6.832       6.742    
        6.661       6.572       6.464       6.342       6.235       6.150       6.057       5.940       5.817       5.704    
        5.575       5.411       5.083       4.660       4.304       4.044       3.800       3.629       3.468       3.200    
        2.859       2.547       2.320       2.189       1.943       1.563       1.122      0.7354      0.3715       0.000    
  48    10.00       9.954       9.896       9.788       9.667       9.554       9.431       9.324       9.173       8.885    
        8.548       8.315       8.129       7.871       7.561       7.286       7.107       6.943       6.834       6.764    
        6.681       6.575       6.459       6.347       6.258       6.190       6.107       5.978       5.836       5.713    
        5.579       5.381       5.039       4.688       4.371       4.084       3.866       3.691       3.486       3.145    
        2.778       2.537       2.356       2.125       1.801       1.465       1.087      0.7407      0.3922       0.000    
  49    10.00       9.952       9.865       9.760       9.669       9.548       9.427       9.315       9.125       8.820    
        8.519       8.296       8.063       7.802       7.568       7.312       7.064       6.911       6.844       6.779    
        6.701       6.579       6.443       6.346       6.279       6.228       6.133       5.984       5.835       5.724    
        5.578       5.318       5.016       4.767       4.502       4.185       3.903       3.687       3.446       3.080    
        2.784       2.573       2.324       1.989       1.703       1.399       1.069      0.7530      0.3835       0.000    
  50    10.00       9.939       9.843       9.747       9.674       9.561       9.428       9.285       9.080       8.839    
        8.534       8.236       7.993       7.785       7.597       7.310       7.027       6.912       6.853       6.790    
        6.714       6.577       6.433       6.344       6.290       6.244       6.138       5.977       5.835       5.722    
        5.562       5.289       5.057       4.844       4.557       4.241       3.956       3.669       3.321       2.998    
        2.841       2.619       2.255       1.918       1.678       1.389       1.102      0.7355      0.3021       0.000    

 HEAD WILL BE SAVED ON UNIT   51 AT END OF TIME STEP  67, STRESS PERIOD    2

 DRAWDOWN WILL BE SAVED ON UNIT   52 AT END OF TIME STEP  67, STRESS PERIOD    2
1
  VOLUMETRIC BUDGET FOR ENTIRE MODEL AT END OF TIME STEP 67 IN STRESS PERIOD   2
  ------------------------------------------------------------------------------

     CUMULATIVE VOLUMES      L**3       RATES FOR THIS TIME STEP      L**3/T
     ------------------                 ------------------------

           IN:                                      IN:
           ---                                      ---
             STORAGE =       31968.7207               STORAGE =         426.9570
       CONSTANT HEAD =       38184.8477         CONSTANT HEAD =         608.7280
               WELLS =           0.0000                 WELLS =           0.0000

            TOTAL IN =       70153.5703              TOTAL IN =        1035.6851

          OUT:                                     OUT:
          ----                                     ----
             STORAGE =       9.3745E-03               STORAGE =           0.0000
       CONSTANT HEAD =       36653.5430         CONSTANT HEAD =         535.6848
               WELLS =       33500.0000                 WELLS =         500.0000

           TOTAL OUT =       70153.5547             TOTAL OUT =        1035.6848

            IN - OUT =       1.5625E-02              IN - OUT =       2.4414E-04

 PERCENT DISCREPANCY =           0.00     PERCENT DISCREPANCY =           0.00






          TIME SUMMARY AT END OF TIME STEP  67 IN STRESS PERIOD    2
                    SECONDS     MINUTES      HOURS       DAYS        YEARS
                    -----------------------------------------------------------
   TIME STEP LENGTH  86400.      1440.0      24.000      1.0000     2.73785E-03
 STRESS PERIOD TIME 5.78880E+06  96480.      1608.0      67.000     0.18344    
         TOTAL TIME 5.87520E+06  97920.      1632.0      68.000     0.18617    
1
 
 SOLVING FOR HEAD 

 OUTPUT CONTROL FOR STRESS PERIOD    2   TIME STEP  68
    SAVE HEAD FOR ALL LAYERS
    SAVE DRAWDOWN FOR ALL LAYERS
    SAVE BUDGET
    PRINT HEAD FOR ALL LAYERS
    PRINT BUDGET
 UBDSV1 SAVING "         STORAGE" ON UNIT  53 AT TIME STEP 68, STRESS PERIOD   2
 UBDSV2 SAVING "   CONSTANT HEAD" ON UNIT  53 AT TIME STEP 68, STRESS PERIOD   2
 UBDSV1 SAVING "FLOW RIGHT FACE " ON UNIT  53 AT TIME STEP 68, STRESS PERIOD   2
 UBDSV1 SAVING "FLOW FRONT FACE " ON UNIT  53 AT TIME STEP 68, STRESS PERIOD   2
1
              HEAD IN LAYER   1 AT END OF TIME STEP  68 IN STRESS PERIOD    2
  ---------------------------------------------------------------------------

            1           2           3           4           5           6           7           8           9          10
           11          12          13          14          15          16          17          18          19          20
           21          22          23          24          25          26          27          28          29          30
           31          32          33          34          35          36          37          38          39          40
           41          42          43          44          45          46          47          48          49          50
 ........................................................................................................................
   1    10.00       9.954       9.891       9.829       9.777       9.713       9.651       9.585       9.498       9.426    
        9.384       9.341       9.294       9.248       9.173       9.091       9.002       8.933       8.901       8.867    
        8.825       8.789       8.752       8.706       8.642       8.531       8.397       8.268       8.119       7.972    
        7.762       7.430       7.038       6.626       6.163       5.736       5.375       5.039       4.581       4.083    
        3.660       3.243       2.667       2.120       1.738       1.355       1.033      0.8254      0.5474       0.000    
   2    10.00       9.954       9.897       9.835       9.779       9.720       9.651       9.565       9.481       9.426    
        9.388       9.350       9.314       9.256       9.170       9.085       9.004       8.936       8.902       8.863    
        8.820       8.792       8.763       8.714       8.640       8.534       8.399       8.264       8.125       7.978    
        7.751       7.408       6.996       6.529       6.063       5.651       5.328       4.999       4.534       4.067    
        3.640       3.138       2.619       2.187       1.807       1.450       1.083      0.7839      0.4185       0.000    
   3    10.00       9.949       9.895       9.838       9.781       9.714       9.628       9.546       9.492       9.442    
        9.398       9.365       9.329       9.275       9.189       9.084       8.997       8.941       8.899       8.860    
        8.824       8.794       8.764       8.703       8.624       8.516       8.388       8.286       8.138       7.964    
        7.672       7.272       6.831       6.378       5.950       5.568       5.280       4.940       4.437       3.982    
        3.628       3.172       2.694       2.280       1.887       1.527       1.093      0.6725      0.2958       0.000    
   4    10.00       9.953       9.898       9.835       9.766       9.688       9.605       9.545       9.499       9.452    
        9.414       9.386       9.346       9.287       9.208       9.093       8.997       8.944       8.899       8.862    
        8.821       8.786       8.748       8.682       8.601       8.496       8.371       8.257       8.141       7.923    
        7.543       7.052       6.580       6.233       5.915       5.547       5.178       4.746       4.321       3.991    
        3.677       3.275       2.798       2.390       1.978       1.542       1.042      0.5970      0.2781       0.000    
   5    10.00       9.950       9.892       9.820       9.748       9.675       9.603       9.552       9.505       9.464    
        9.430       9.401       9.354       9.285       9.193       9.088       9.006       8.948       8.902       8.850    
        8.802       8.766       8.718       8.651       8.575       8.454       8.330       8.231       8.116       7.834    
        7.333       6.790       6.400       6.138       5.852       5.482       5.060       4.635       4.336       4.058    
        3.775       3.362       2.866       2.511       2.092       1.522      0.9484      0.5510      0.2772       0.000    
   6    10.00       9.938       9.868       9.813       9.745       9.669       9.609       9.562       9.513       9.476    
        9.445       9.408       9.349       9.268       9.189       9.102       9.013       8.941       8.881       8.821    
        8.779       8.740       8.696       8.625       8.512       8.397       8.304       8.196       8.002       7.594    
        7.033       6.541       6.244       6.048       5.818       5.411       4.955       4.621       4.402       4.160    
        3.888       3.516       3.026       2.584       2.066       1.456      0.8505      0.4846      0.2708       0.000    
   7    10.00       9.920       9.855       9.800       9.735       9.681       9.623       9.575       9.533       9.493    
        9.453       9.400       9.328       9.249       9.178       9.106       9.007       8.910       8.845       8.797    
        8.755       8.713       8.667       8.571       8.455       8.363       8.261       8.086       7.753       7.232    
        6.703       6.320       6.139       5.989       5.694       5.290       4.992       4.705       4.470       4.304    
        4.031       3.647       3.123       2.552       1.914       1.213      0.7129      0.4920      0.2492       0.000    
   8    10.00       9.915       9.855       9.796       9.738       9.690       9.640       9.593       9.553       9.515    
        9.456       9.379       9.303       9.234       9.167       9.077       8.959       8.868       8.819       8.773    
        8.724       8.688       8.612       8.508       8.405       8.295       8.101       7.822       7.364       6.914    
        6.523       6.225       6.089       5.906       5.572       5.263       5.017       4.808       4.622       4.428    
        4.145       3.673       3.069       2.417       1.690       1.095      0.7544      0.4827      0.2224       0.000    
   9    10.00       9.919       9.851       9.793       9.752       9.711       9.663       9.617       9.571       9.526    
        9.451       9.357       9.278       9.208       9.126       9.026       8.920       8.839       8.788       8.739    
        8.696       8.636       8.531       8.434       8.327       8.172       7.888       7.468       7.016       6.695    
        6.389       6.175       6.024       5.779       5.473       5.236       5.063       4.906       4.749       4.538    
        4.188       3.697       3.054       2.327       1.657       1.134      0.7697      0.4788      0.2374       0.000    
  10    10.00       9.917       9.848       9.801       9.764       9.724       9.682       9.642       9.588       9.517    
        9.426       9.331       9.254       9.177       9.091       8.974       8.867       8.803       8.758       8.709    
        8.664       8.566       8.452       8.345       8.195       7.960       7.534       7.081       6.729       6.488    
        6.309       6.136       5.930       5.680       5.424       5.248       5.122       4.993       4.817       4.573    
        4.198       3.660       2.974       2.324       1.795       1.299      0.8245      0.5086      0.2681       0.000    
  11    10.00       9.906       9.853       9.813       9.776       9.741       9.703       9.649       9.573       9.493    
        9.402       9.309       9.234       9.131       9.013       8.911       8.835       8.775       8.730       8.676    
        8.593       8.466       8.302       8.142       7.879       7.529       7.152       6.855       6.575       6.405    
        6.254       6.026       5.795       5.611       5.443       5.317       5.193       5.027       4.820       4.533    
        4.181       3.707       3.013       2.421       1.952       1.477      0.9506      0.5043      0.2025       0.000    
  12    10.00       9.914       9.862       9.820       9.788       9.752       9.710       9.637       9.546       9.464    
        9.377       9.284       9.183       9.059       8.962       8.874       8.794       8.744       8.686       8.602    
        8.439       8.222       7.991       7.752       7.425       7.158       6.964       6.659       6.431       6.300    
        6.141       5.928       5.748       5.595       5.489       5.375       5.227       5.040       4.792       4.493    
        4.146       3.683       3.048       2.521       2.097       1.584       1.001      0.4776      0.1588       0.000    
  13    10.00       9.933       9.884       9.839       9.799       9.757       9.695       9.604       9.510       9.429    
        9.337       9.243       9.137       9.008       8.897       8.809       8.752       8.687       8.605       8.406    
        8.107       7.843       7.594       7.295       7.041       6.924       6.683       6.407       6.293       6.186    
        6.017       5.836       5.710       5.609       5.523       5.419       5.249       5.017       4.775       4.466    
        4.123       3.652       2.997       2.504       2.111       1.550      0.9327      0.4321      0.1249       0.000    
  14    10.00       9.951       9.907       9.859       9.810       9.746       9.655       9.560       9.475       9.383    
        9.291       9.204       9.078       8.934       8.832       8.762       8.669       8.568       8.370       8.019    
        7.700       7.466       7.139       6.896       6.784       6.652       6.405       6.247       6.132       6.028    
        5.888       5.780       5.708       5.629       5.541       5.435       5.245       4.991       4.731       4.417    
        4.049       3.480       2.864       2.466       1.984       1.445      0.9194      0.3946      0.1016       0.000    
  15    10.00       9.961       9.917       9.868       9.812       9.715       9.604       9.519       9.435       9.346    
        9.276       9.175       9.008       8.850       8.756       8.632       8.506       8.377       8.042       7.631    
        7.370       7.038       6.741       6.652       6.585       6.411       6.214       6.060       5.979       5.905    
        5.824       5.766       5.712       5.646       5.554       5.424       5.204       4.916       4.643       4.354    
        3.955       3.402       2.869       2.334       1.751       1.268      0.7904      0.3476      0.1043       0.000    
  16    10.00       9.971       9.928       9.870       9.782       9.663       9.567       9.498       9.422       9.330    
        9.236       9.090       8.897       8.745       8.609       8.461       8.375       8.115       7.628       7.251    
        6.989       6.664       6.556       6.503       6.376       6.157       5.999       5.929       5.908       5.860    
        5.802       5.756       5.713       5.644       5.532       5.370       5.106       4.845       4.631       4.321    
        3.867       3.270       2.657       2.061       1.565       1.087      0.6732      0.3298      0.1113       0.000    
  17    10.00       9.971       9.925       9.849       9.740       9.620       9.539       9.476       9.391       9.288    
        9.131       8.944       8.770       8.605       8.435       8.294       8.080       7.643       7.191       6.932    
        6.676       6.480       6.395       6.271       6.072       5.910       5.871       5.866       5.855       5.815    
        5.772       5.738       5.699       5.634       5.473       5.251       5.024       4.841       4.638       4.248    
        3.642       3.032       2.446       1.860       1.339      0.8797      0.5641      0.2948      0.1212       0.000    
  18    10.00       9.964       9.910       9.819       9.682       9.586       9.522       9.436       9.338       9.193    
        9.003       8.837       8.662       8.438       8.216       7.980       7.669       7.227       6.891       6.666    
        6.459       6.295       6.166       5.989       5.855       5.814       5.805       5.805       5.786       5.758    
        5.736       5.712       5.667       5.554       5.386       5.198       5.010       4.847       4.562       4.039    
        3.418       2.768       2.139       1.658       1.242      0.8247      0.4845      0.2438      0.1169       0.000    
  19    10.00       9.956       9.896       9.763       9.627       9.570       9.499       9.393       9.271       9.115    
        8.942       8.785       8.530       8.191       7.927       7.685       7.309       6.909       6.685       6.513    
        6.299       6.101       5.958       5.824       5.759       5.746       5.743       5.726       5.700       5.693    
        5.685       5.665       5.600       5.491       5.352       5.171       5.001       4.766       4.276       3.731    
        3.229       2.555       1.957       1.574       1.162      0.7441      0.4376      0.2483      0.1272       0.000    
  20    10.00       9.946       9.845       9.709       9.609       9.548       9.471       9.357       9.221       9.080    
        8.901       8.662       8.281       7.944       7.710       7.412       7.040       6.823       6.618       6.379    
        6.145       5.967       5.820       5.726       5.678       5.655       5.627       5.621       5.608       5.617    
        5.620       5.603       5.535       5.436       5.294       5.138       4.926       4.495       3.964       3.528    
        2.980       2.359       1.911       1.540       1.123      0.6606      0.3823      0.2586      0.1332       0.000    
  21    10.00       9.910       9.802       9.688       9.591       9.526       9.442       9.309       9.174       9.040    
        8.800       8.435       8.047       7.794       7.532       7.219       6.945       6.739       6.493       6.241    
        6.017       5.844       5.715       5.615       5.549       5.500       5.484       5.493       5.497       5.515    
        5.535       5.510       5.441       5.350       5.207       5.036       4.704       4.249       3.829       3.299    
        2.779       2.288       1.909       1.534      0.9469      0.5352      0.3871      0.2921      0.1401       0.000    
  22    10.00       9.887       9.757       9.655       9.578       9.500       9.381       9.257       9.138       8.952    
        8.644       8.232       7.925       7.696       7.404       7.083       6.821       6.604       6.379       6.141    
        5.919       5.736       5.564       5.410       5.324       5.304       5.322       5.337       5.375       5.400    
        5.423       5.395       5.340       5.244       5.103       4.933       4.594       4.157       3.607       3.093    
        2.715       2.323       1.867       1.238      0.7393      0.5338      0.4059      0.2703      0.1000       0.000    
  23    10.00       9.854       9.727       9.647       9.565       9.448       9.319       9.226       9.076       8.843    
        8.483       8.131       7.910       7.625       7.245       6.927       6.721       6.545       6.336       6.079    
        5.845       5.631       5.384       5.095       4.885       4.928       5.065       5.154       5.235       5.290    
        5.313       5.299       5.249       5.160       5.028       4.837       4.494       3.954       3.401       3.038    
        2.691       2.196       1.540      0.9994      0.7279      0.5446      0.3897      0.2300      9.1530E-02   0.000    
  24    10.00       9.831       9.740       9.643       9.526       9.404       9.305       9.202       9.057       8.748    
        8.411       8.151       7.902       7.522       7.105       6.877       6.704       6.530       6.293       6.052    
        5.844       5.571       5.176       4.630       3.963       4.234       4.640       4.923       5.091       5.178    
        5.222       5.216       5.178       5.081       4.932       4.691       4.256       3.743       3.329       2.951    
        2.524       1.970       1.384      0.9698      0.7297      0.5308      0.3557      0.2493      0.1224       0.000    
  25    10.00       9.850       9.756       9.635       9.512       9.401       9.302       9.207       8.990       8.691    
        8.431       8.168       7.842       7.425       7.116       6.912       6.715       6.507       6.290       6.082    
        5.843       5.582       5.019       3.978       2.128       3.504       4.249       4.692       4.967       5.111    
        5.164       5.163       5.116       4.981       4.776       4.445       4.033       3.629       3.275       2.832    
        2.316       1.787       1.292      0.9617      0.7566      0.5518      0.3749      0.2611      0.1625       0.000    
  26    10.00       9.870       9.779       9.651       9.520       9.418       9.313       9.173       8.959       8.751    
        8.508       8.148       7.749       7.412       7.178       6.978       6.750       6.494       6.284       6.110    
        5.911       5.653       5.166       4.400       3.552       3.906       4.355       4.687       4.941       5.097    
        5.140       5.127       5.046       4.882       4.654       4.338       3.882       3.498       3.164       2.625    
        2.040       1.575       1.279       1.050      0.8160      0.5958      0.4087      0.2837      0.1658       0.000    
  27    10.00       9.896       9.784       9.669       9.556       9.436       9.319       9.178       9.001       8.811    
        8.504       8.100       7.750       7.471       7.274       7.044       6.747       6.480       6.316       6.173    
        6.017       5.778       5.409       4.956       4.497       4.465       4.635       4.847       5.035       5.126    
        5.137       5.108       5.011       4.831       4.563       4.133       3.702       3.382       2.872       2.302    
        1.846       1.547       1.324       1.123      0.8921      0.6504      0.4441      0.3123      0.1971       0.000    
  28    10.00       9.903       9.811       9.707       9.596       9.469       9.340       9.204       9.050       8.828    
        8.471       8.119       7.815       7.540       7.331       7.107       6.864       6.605       6.372       6.224    
        6.100       5.930       5.691       5.361       5.079       4.913       4.946       5.081       5.145       5.170    
        5.150       5.098       4.977       4.745       4.389       3.940       3.564       3.112       2.577       2.170    
        1.845       1.590       1.372       1.162      0.9375      0.7098      0.5039      0.3557      0.2033       0.000    
  29    10.00       9.910       9.820       9.738       9.629       9.515       9.389       9.250       9.081       8.785    
        8.453       8.155       7.866       7.635       7.398       7.159       6.938       6.731       6.507       6.311    
        6.177       6.046       5.888       5.691       5.422       5.290       5.273       5.278       5.281       5.241    
        5.176       5.071       4.923       4.623       4.181       3.779       3.395       2.919       2.489       2.190    
        1.924       1.646       1.398       1.197      0.9946      0.7510      0.5327      0.3718      0.2062       0.000    
  30    10.00       9.922       9.848       9.776       9.679       9.566       9.453       9.294       9.069       8.800    
        8.464       8.142       7.906       7.675       7.451       7.235       7.057       6.864       6.646       6.438    
        6.273       6.162       6.027       5.893       5.747       5.627       5.584       5.490       5.427       5.327    
        5.190       5.008       4.792       4.471       4.119       3.738       3.324       2.877       2.549       2.275    
        1.960       1.680       1.464       1.235      0.9934      0.7775      0.5680      0.3950      0.2220       0.000    
  31    10.00       9.939       9.877       9.809       9.737       9.646       9.518       9.322       9.066       8.782    
        8.460       8.172       7.957       7.732       7.524       7.325       7.147       6.997       6.778       6.569    
        6.418       6.299       6.193       6.090       6.014       5.903       5.783       5.678       5.544       5.386    
        5.166       4.925       4.699       4.432       4.093       3.688       3.266       2.896       2.663       2.403    
        2.052       1.744       1.498       1.265       1.041      0.8184      0.6022      0.4159      0.2154       0.000    
  32    10.00       9.947       9.903       9.844       9.776       9.690       9.554       9.330       9.098       8.830    
        8.498       8.232       8.029       7.798       7.578       7.416       7.261       7.083       6.907       6.702    
        6.546       6.420       6.326       6.239       6.151       6.061       5.920       5.786       5.621       5.401    
        5.144       4.896       4.656       4.396       4.061       3.695       3.363       3.046       2.779       2.481    
        2.157       1.852       1.592       1.324       1.079      0.8905      0.6645      0.4083      0.1824       0.000    
  33    10.00       9.955       9.921       9.871       9.802       9.711       9.535       9.315       9.127       8.888    
        8.586       8.333       8.095       7.837       7.644       7.507       7.372       7.190       6.997       6.822    
        6.648       6.521       6.406       6.309       6.230       6.141       5.999       5.818       5.643       5.431    
        5.170       4.941       4.686       4.361       4.046       3.718       3.448       3.198       2.896       2.567    
        2.287       1.997       1.711       1.434       1.176      0.9651      0.7116      0.4108      0.1786       0.000    
  34    10.00       9.963       9.937       9.895       9.805       9.672       9.511       9.359       9.165       8.930    
        8.673       8.399       8.134       7.884       7.724       7.612       7.467       7.293       7.077       6.909    
        6.755       6.597       6.473       6.375       6.296       6.186       6.023       5.850       5.660       5.414    
        5.185       4.993       4.744       4.428       4.110       3.805       3.549       3.302       2.988       2.689    
        2.437       2.158       1.845       1.568       1.306       1.064      0.7617      0.4625      0.2425       0.000    
  35    10.00       9.969       9.937       9.878       9.768       9.640       9.525       9.393       9.238       8.985    
        8.705       8.435       8.169       7.961       7.817       7.698       7.545       7.363       7.155       6.957    
        6.807       6.661       6.534       6.440       6.353       6.241       6.060       5.853       5.630       5.375    
        5.199       5.003       4.747       4.515       4.246       3.923       3.638       3.428       3.129       2.809    
        2.565       2.279       1.965       1.693       1.420       1.155      0.8734      0.5789      0.2864       0.000    
  36    10.00       9.963       9.912       9.848       9.746       9.627       9.531       9.420       9.253       9.012    
        8.710       8.426       8.236       8.075       7.934       7.783       7.604       7.422       7.205       6.955    
        6.791       6.680       6.568       6.489       6.400       6.260       6.060       5.831       5.560       5.324    
        5.169       5.009       4.785       4.559       4.333       4.043       3.757       3.532       3.264       2.914    
        2.646       2.327       2.014       1.806       1.541       1.246      0.9636      0.6558      0.3209       0.000    
  37    10.00       9.943       9.890       9.826       9.727       9.624       9.516       9.410       9.259       8.980    
        8.668       8.450       8.337       8.183       8.009       7.861       7.645       7.421       7.154       6.903    
        6.786       6.694       6.586       6.502       6.399       6.231       6.027       5.736       5.484       5.323    
        5.184       5.009       4.787       4.607       4.376       4.102       3.877       3.660       3.360       2.974    
        2.623       2.323       2.105       1.889       1.624       1.344       1.062      0.7232      0.3971       0.000    
  38    10.00       9.936       9.868       9.801       9.715       9.617       9.504       9.390       9.219       8.958    
        8.725       8.551       8.406       8.269       8.084       7.849       7.611       7.357       7.062       6.888    
        6.793       6.674       6.569       6.496       6.383       6.190       5.893       5.617       5.479       5.354    
        5.206       5.020       4.818       4.639       4.413       4.162       3.977       3.756       3.372       2.948    
        2.643       2.392       2.176       1.953       1.718       1.434       1.152      0.8364      0.4133       0.000    
  39    10.00       9.919       9.852       9.792       9.711       9.600       9.482       9.365       9.204       8.992    
        8.809       8.676       8.515       8.329       8.071       7.782       7.515       7.223       7.010       6.894    
        6.758       6.622       6.541       6.472       6.364       6.110       5.806       5.632       5.505       5.375    
        5.209       5.032       4.836       4.656       4.484       4.277       4.034       3.767       3.389       2.993    
        2.671       2.412       2.241       2.055       1.790       1.509       1.223      0.8705      0.4079       0.000    
  40    10.00       9.910       9.847       9.787       9.703       9.590       9.475       9.360       9.217       9.041    
        8.891       8.775       8.583       8.301       7.981       7.693       7.411       7.158       7.000       6.861    
        6.705       6.585       6.514       6.431       6.286       6.061       5.851       5.674       5.530       5.395    
        5.233       5.041       4.856       4.705       4.553       4.344       4.063       3.783       3.398       2.974    
        2.672       2.467       2.280       2.120       1.842       1.533       1.272      0.8728      0.4064       0.000    
  41    10.00       9.919       9.846       9.774       9.684       9.596       9.499       9.393       9.252       9.092    
        8.949       8.812       8.570       8.240       7.911       7.640       7.362       7.119       6.966       6.816    
        6.661       6.554       6.477       6.378       6.228       6.056       5.913       5.741       5.560       5.402    
        5.246       5.072       4.893       4.761       4.600       4.391       4.111       3.724       3.282       2.955    
        2.736       2.538       2.343       2.121       1.832       1.537       1.313      0.9298      0.4216       0.000    
  42    10.00       9.919       9.837       9.773       9.708       9.626       9.524       9.403       9.283       9.161    
        8.983       8.752       8.472       8.158       7.853       7.606       7.334       7.096       6.932       6.763    
        6.618       6.524       6.440       6.349       6.211       6.090       5.968       5.773       5.571       5.428    
        5.299       5.108       4.917       4.789       4.640       4.417       4.072       3.616       3.211       2.967    
        2.802       2.625       2.377       2.082       1.804       1.573       1.341      0.9806      0.4838       0.000    
  43    10.00       9.912       9.843       9.789       9.737       9.659       9.558       9.444       9.312       9.127    
        8.901       8.664       8.402       8.076       7.801       7.572       7.328       7.089       6.881       6.724    
        6.592       6.498       6.425       6.350       6.232       6.105       5.982       5.781       5.604       5.498    
        5.341       5.135       4.951       4.818       4.644       4.355       3.956       3.524       3.229       3.042    
        2.866       2.662       2.359       2.055       1.809       1.587       1.387      0.9944      0.4545       0.000    
  44    10.00       9.912       9.852       9.803       9.741       9.683       9.600       9.449       9.257       9.045    
        8.856       8.615       8.300       8.027       7.806       7.545       7.278       7.027       6.821       6.683    
        6.586       6.503       6.429       6.351       6.249       6.119       5.953       5.786       5.666       5.539    
        5.398       5.219       5.007       4.806       4.593       4.270       3.851       3.495       3.267       3.086    
        2.909       2.667       2.374       2.111       1.848       1.609       1.365      0.8978      0.4129       0.000    
  45    10.00       9.922       9.866       9.803       9.742       9.692       9.559       9.381       9.187       9.005    
        8.849       8.529       8.202       8.003       7.768       7.478       7.189       6.957       6.789       6.678    
        6.603       6.525       6.443       6.351       6.237       6.111       5.970       5.841       5.735       5.604    
        5.440       5.254       5.036       4.782       4.527       4.180       3.786       3.506       3.333       3.146    
        2.910       2.633       2.381       2.142       1.909       1.671       1.275      0.7979      0.4016       0.000    
  46    10.00       9.937       9.878       9.803       9.734       9.635       9.491       9.357       9.194       8.999    
        8.742       8.438       8.176       7.924       7.673       7.393       7.124       6.952       6.814       6.707    
        6.632       6.556       6.453       6.337       6.227       6.120       6.008       5.890       5.783       5.668    
        5.520       5.324       5.076       4.775       4.411       4.050       3.759       3.561       3.379       3.185    
        2.905       2.611       2.360       2.170       1.948       1.638       1.187      0.7622      0.3757       0.000    
  47    10.00       9.949       9.892       9.819       9.701       9.571       9.448       9.342       9.193       8.937    
        8.628       8.350       8.122       7.911       7.645       7.340       7.103       6.940       6.829       6.740    
        6.658       6.570       6.462       6.340       6.232       6.148       6.055       5.938       5.815       5.702    
        5.573       5.409       5.081       4.658       4.303       4.043       3.799       3.628       3.468       3.200    
        2.859       2.546       2.319       2.188       1.942       1.563       1.122      0.7353      0.3715       0.000    
  48    10.00       9.954       9.896       9.787       9.666       9.554       9.430       9.323       9.173       8.884    
        8.547       8.314       8.127       7.869       7.559       7.284       7.105       6.941       6.832       6.762    
        6.679       6.573       6.456       6.344       6.256       6.188       6.105       5.976       5.834       5.712    
        5.577       5.379       5.038       4.687       4.370       4.083       3.865       3.690       3.485       3.144    
        2.777       2.537       2.356       2.124       1.801       1.465       1.087      0.7406      0.3921       0.000    
  49    10.00       9.952       9.864       9.759       9.668       9.547       9.427       9.314       9.125       8.819    
        8.518       8.295       8.062       7.801       7.567       7.310       7.062       6.909       6.842       6.777    
        6.698       6.577       6.441       6.344       6.276       6.226       6.131       5.982       5.833       5.722    
        5.576       5.316       5.015       4.766       4.500       4.184       3.902       3.686       3.445       3.080    
        2.784       2.573       2.323       1.989       1.703       1.399       1.069      0.7529      0.3834       0.000    
  50    10.00       9.939       9.843       9.747       9.674       9.561       9.428       9.284       9.079       8.838    
        8.533       8.234       7.991       7.783       7.595       7.308       7.025       6.910       6.851       6.788    
        6.712       6.575       6.430       6.342       6.288       6.242       6.136       5.975       5.833       5.720    
        5.560       5.288       5.055       4.842       4.555       4.240       3.955       3.668       3.321       2.997    
        2.840       2.618       2.254       1.918       1.678       1.388       1.102      0.7354      0.3021       0.000    

 HEAD WILL BE SAVED ON UNIT   51 AT END OF TIME STEP  68, STRESS PERIOD    2

 DRAWDOWN WILL BE SAVED ON UNIT   52 AT END OF TIME STEP  68, STRESS PERIOD    2
1
  VOLUMETRIC BUDGET FOR ENTIRE MODEL AT END OF TIME STEP 68 IN STRESS PERIOD   2
  ------------------------------------------------------------------------------

     CUMULATIVE VOLUMES      L**3       RATES FOR THIS TIME STEP      L**3/T
     ------------------                 ------------------------

           IN:                                      IN:
           ---                                      ---
             STORAGE =       32393.6641               STORAGE =         424.9427
       CONSTANT HEAD =       38795.3672         CONSTANT HEAD =         610.5178
               WELLS =           0.0000                 WELLS =           0.0000

            TOTAL IN =       71189.0312              TOTAL IN =        1035.4604

          OUT:                                     OUT:
          ----                                     ----
             STORAGE =       9.3745E-03               STORAGE =           0.0000
       CONSTANT HEAD =       37189.0039         CONSTANT HEAD =         535.4605
               WELLS =       34000.0000                 WELLS =         500.0000

           TOTAL OUT =       71189.0156             TOTAL OUT =        1035.4604

            IN - OUT =       1.5625E-02              IN - OUT =           0.0000

 PERCENT DISCREPANCY =           0.00     PERCENT DISCREPANCY =           0.00






          TIME SUMMARY AT END OF TIME STEP  68 IN STRESS PERIOD    2
                    SECONDS     MINUTES      HOURS       DAYS        YEARS
                    -----------------------------------------------------------
   TIME STEP LENGTH  86400.      1440.0      24.000      1.0000     2.73785E-03
 STRESS PERIOD TIME 5.87520E+06  97920.      1632.0      68.000     0.18617    
         TOTAL TIME 5.96160E+06  99360.      1656.0      69.000     0.18891    
1
 
 SOLVING FOR HEAD 

 OUTPUT CONTROL FOR STRESS PERIOD    2   TIME STEP  69
    SAVE HEAD FOR ALL LAYERS
    SAVE DRAWDOWN FOR ALL LAYERS
    SAVE BUDGET
    PRINT HEAD FOR ALL LAYERS
    PRINT BUDGET
 UBDSV1 SAVING "         STORAGE" ON UNIT  53 AT TIME STEP 69, STRESS PERIOD   2
 UBDSV2 SAVING "   CONSTANT HEAD" ON UNIT  53 AT TIME STEP 69, STRESS PERIOD   2
 UBDSV1 SAVING "FLOW RIGHT FACE " ON UNIT  53 AT TIME STEP 69, STRESS PERIOD   2
 UBDSV1 SAVING "FLOW FRONT FACE " ON UNIT  53 AT TIME STEP 69, STRESS PERIOD   2
1
              HEAD IN LAYER   1 AT END OF TIME STEP  69 IN STRESS PERIOD    2
  ---------------------------------------------------------------------------

            1           2           3           4           5           6           7           8           9          10
           11          12          13          14          15          16          17          18          19          20
           21          22          23          24          25          26          27          28          29          30
           31          32          33          34          35          36          37          38          39          40
           41          42          43          44          45          46          47          48          49          50
 ........................................................................................................................
   1    10.00       9.954       9.891       9.828       9.776       9.712       9.650       9.584       9.496       9.424    
        9.382       9.339       9.292       9.246       9.171       9.089       8.999       8.930       8.898       8.864    
        8.821       8.785       8.748       8.702       8.638       8.527       8.393       8.264       8.115       7.968    
        7.758       7.426       7.034       6.622       6.160       5.733       5.371       5.036       4.578       4.080    
        3.658       3.240       2.665       2.119       1.736       1.354       1.032      0.8248      0.5470       0.000    
   2    10.00       9.953       9.897       9.834       9.778       9.719       9.650       9.564       9.479       9.424    
        9.386       9.348       9.312       9.253       9.167       9.083       9.001       8.933       8.899       8.860    
        8.816       8.789       8.759       8.710       8.636       8.530       8.395       8.260       8.121       7.974    
        7.748       7.404       6.992       6.525       6.059       5.647       5.324       4.995       4.531       4.064    
        3.638       3.136       2.617       2.185       1.806       1.449       1.083      0.7833      0.4182       0.000    
   3    10.00       9.949       9.895       9.837       9.781       9.713       9.626       9.544       9.491       9.440    
        9.396       9.363       9.327       9.272       9.186       9.081       8.994       8.938       8.896       8.856    
        8.820       8.791       8.761       8.699       8.620       8.512       8.384       8.282       8.134       7.961    
        7.668       7.268       6.827       6.374       5.946       5.564       5.276       4.937       4.433       3.979    
        3.625       3.169       2.692       2.279       1.885       1.525       1.092      0.6720      0.2956       0.000    
   4    10.00       9.953       9.898       9.835       9.765       9.687       9.604       9.543       9.497       9.450    
        9.412       9.384       9.344       9.285       9.206       9.090       8.994       8.941       8.896       8.859    
        8.818       8.782       8.744       8.678       8.597       8.493       8.367       8.252       8.137       7.919    
        7.539       7.048       6.575       6.228       5.911       5.543       5.174       4.742       4.317       3.988    
        3.674       3.272       2.796       2.388       1.976       1.541       1.042      0.5966      0.2779       0.000    
   5    10.00       9.949       9.891       9.819       9.747       9.674       9.602       9.551       9.503       9.462    
        9.428       9.399       9.352       9.283       9.191       9.085       9.003       8.945       8.898       8.847    
        8.798       8.762       8.714       8.647       8.571       8.450       8.326       8.227       8.112       7.829    
        7.328       6.785       6.395       6.133       5.847       5.477       5.056       4.631       4.332       4.054    
        3.772       3.359       2.864       2.509       2.090       1.521      0.9477      0.5506      0.2770       0.000    
   6    10.00       9.937       9.868       9.812       9.744       9.668       9.607       9.561       9.512       9.474    
        9.443       9.406       9.346       9.266       9.186       9.099       9.010       8.938       8.878       8.818    
        8.776       8.736       8.692       8.621       8.508       8.392       8.300       8.192       7.997       7.589    
        7.028       6.536       6.238       6.043       5.812       5.405       4.950       4.617       4.398       4.156    
        3.885       3.512       3.023       2.582       2.064       1.455      0.8499      0.4842      0.2706       0.000    
   7    10.00       9.919       9.854       9.800       9.734       9.680       9.622       9.573       9.532       9.492    
        9.451       9.398       9.326       9.247       9.175       9.103       9.004       8.907       8.842       8.793    
        8.751       8.709       8.663       8.567       8.451       8.359       8.256       8.081       7.748       7.226    
        6.697       6.314       6.132       5.983       5.688       5.284       4.986       4.700       4.465       4.300    
        4.027       3.644       3.120       2.550       1.912       1.212      0.7124      0.4917      0.2490       0.000    
   8    10.00       9.914       9.854       9.795       9.737       9.689       9.639       9.592       9.552       9.513    
        9.454       9.377       9.301       9.232       9.164       9.074       8.956       8.865       8.815       8.769    
        8.720       8.684       8.608       8.504       8.400       8.291       8.096       7.817       7.358       6.907    
        6.516       6.219       6.083       5.899       5.566       5.256       5.011       4.802       4.617       4.423    
        4.141       3.670       3.066       2.415       1.688       1.094      0.7539      0.4823      0.2222       0.000    
   9    10.00       9.918       9.850       9.793       9.751       9.710       9.661       9.615       9.569       9.525    
        9.449       9.355       9.276       9.205       9.124       9.023       8.916       8.836       8.785       8.736    
        8.691       8.632       8.526       8.429       8.322       8.167       7.883       7.462       7.009       6.687    
        6.381       6.168       6.016       5.772       5.466       5.229       5.056       4.900       4.743       4.533    
        4.184       3.693       3.052       2.325       1.656       1.133      0.7691      0.4785      0.2373       0.000    
  10    10.00       9.917       9.848       9.800       9.763       9.723       9.681       9.640       9.587       9.516    
        9.424       9.328       9.251       9.174       9.088       8.971       8.864       8.799       8.754       8.705    
        8.659       8.561       8.447       8.340       8.190       7.954       7.527       7.074       6.722       6.480    
        6.301       6.129       5.923       5.673       5.417       5.241       5.115       4.987       4.812       4.568    
        4.193       3.656       2.971       2.322       1.793       1.298      0.8239      0.5082      0.2679       0.000    
  11    10.00       9.906       9.852       9.813       9.775       9.740       9.702       9.648       9.572       9.491    
        9.400       9.306       9.231       9.128       9.010       8.907       8.831       8.771       8.726       8.672    
        8.589       8.462       8.297       8.137       7.872       7.521       7.144       6.847       6.567       6.396    
        6.246       6.018       5.787       5.603       5.436       5.310       5.186       5.021       4.814       4.528    
        4.176       3.703       3.010       2.419       1.951       1.476      0.9500      0.5040      0.2024       0.000    
  12    10.00       9.914       9.861       9.819       9.788       9.751       9.709       9.635       9.544       9.462    
        9.375       9.281       9.180       9.055       8.958       8.870       8.790       8.740       8.681       8.598    
        8.434       8.216       7.984       7.745       7.417       7.149       6.955       6.650       6.422       6.291    
        6.132       5.919       5.739       5.587       5.481       5.368       5.220       5.034       4.786       4.487    
        4.142       3.679       3.045       2.518       2.095       1.582       1.000      0.4773      0.1587       0.000    
  13    10.00       9.933       9.884       9.838       9.798       9.756       9.694       9.602       9.508       9.426    
        9.334       9.240       9.133       9.004       8.892       8.805       8.748       8.683       8.600       8.400    
        8.100       7.836       7.586       7.286       7.032       6.914       6.674       6.397       6.283       6.176    
        6.008       5.827       5.700       5.600       5.514       5.411       5.242       5.010       4.768       4.461    
        4.118       3.648       2.994       2.502       2.109       1.549      0.9321      0.4319      0.1248       0.000    
  14    10.00       9.951       9.906       9.858       9.810       9.745       9.654       9.558       9.473       9.380    
        9.288       9.201       9.074       8.930       8.827       8.757       8.664       8.563       8.364       8.012    
        7.692       7.458       7.129       6.886       6.773       6.642       6.394       6.236       6.121       6.018    
        5.877       5.770       5.698       5.619       5.532       5.426       5.237       4.983       4.724       4.411    
        4.044       3.476       2.861       2.464       1.982       1.444      0.9187      0.3943      0.1015       0.000    
  15    10.00       9.961       9.916       9.868       9.811       9.714       9.602       9.517       9.433       9.343    
        9.273       9.171       9.003       8.845       8.751       8.627       8.500       8.371       8.035       7.623    
        7.361       7.028       6.731       6.641       6.574       6.400       6.203       6.048       5.968       5.894    
        5.813       5.755       5.702       5.636       5.545       5.415       5.196       4.908       4.636       4.348    
        3.950       3.398       2.866       2.332       1.749       1.267      0.7898      0.3473      0.1043       0.000    
  16    10.00       9.971       9.927       9.869       9.781       9.661       9.565       9.496       9.420       9.327    
        9.233       9.086       8.892       8.740       8.603       8.455       8.369       8.107       7.619       7.241    
        6.978       6.653       6.545       6.492       6.365       6.146       5.987       5.918       5.896       5.849    
        5.791       5.746       5.703       5.634       5.523       5.361       5.098       4.837       4.624       4.315    
        3.862       3.266       2.654       2.059       1.564       1.086      0.6727      0.3296      0.1112       0.000    
  17    10.00       9.971       9.924       9.848       9.738       9.618       9.537       9.474       9.388       9.285    
        9.127       8.940       8.765       8.599       8.429       8.287       8.072       7.634       7.181       6.922    
        6.665       6.468       6.383       6.260       6.060       5.898       5.858       5.854       5.843       5.804    
        5.761       5.727       5.689       5.623       5.463       5.241       5.016       4.833       4.631       4.242    
        3.637       3.028       2.443       1.858       1.338      0.8790      0.5637      0.2946      0.1211       0.000    
  18    10.00       9.964       9.909       9.818       9.680       9.584       9.520       9.433       9.335       9.190    
        8.998       8.832       8.656       8.431       8.208       7.972       7.659       7.216       6.880       6.654    
        6.447       6.283       6.153       5.977       5.842       5.802       5.793       5.793       5.774       5.746    
        5.724       5.700       5.656       5.543       5.376       5.189       5.001       4.839       4.555       4.033    
        3.413       2.764       2.137       1.656       1.241      0.8240      0.4841      0.2437      0.1168       0.000    
  19    10.00       9.956       9.895       9.762       9.625       9.568       9.497       9.390       9.268       9.111    
        8.936       8.779       8.524       8.183       7.918       7.675       7.299       6.898       6.673       6.500    
        6.287       6.088       5.946       5.811       5.746       5.733       5.730       5.713       5.687       5.681    
        5.672       5.653       5.588       5.480       5.341       5.161       4.992       4.757       4.269       3.726    
        3.224       2.552       1.955       1.573       1.161      0.7435      0.4372      0.2481      0.1271       0.000    
  20    10.00       9.946       9.844       9.707       9.607       9.546       9.468       9.354       9.218       9.075    
        8.895       8.656       8.273       7.935       7.700       7.401       7.029       6.811       6.606       6.367    
        6.132       5.954       5.807       5.713       5.665       5.642       5.614       5.608       5.595       5.604    
        5.607       5.591       5.523       5.425       5.283       5.128       4.917       4.487       3.958       3.523    
        2.977       2.356       1.909       1.539       1.122      0.6601      0.3821      0.2584      0.1331       0.000    
  21    10.00       9.910       9.801       9.687       9.588       9.523       9.439       9.305       9.170       9.035    
        8.794       8.427       8.039       7.784       7.522       7.208       6.933       6.727       6.481       6.228    
        6.004       5.830       5.702       5.602       5.536       5.487       5.470       5.480       5.484       5.502    
        5.522       5.497       5.429       5.338       5.196       5.026       4.695       4.242       3.823       3.294    
        2.776       2.285       1.907       1.532      0.9461      0.5349      0.3868      0.2919      0.1400       0.000    
  22    10.00       9.886       9.756       9.653       9.575       9.497       9.378       9.254       9.134       8.947    
        8.638       8.223       7.916       7.687       7.393       7.072       6.809       6.591       6.367       6.128    
        5.906       5.722       5.550       5.397       5.310       5.291       5.308       5.323       5.362       5.386    
        5.410       5.382       5.327       5.232       5.092       4.922       4.585       4.149       3.601       3.089    
        2.712       2.320       1.865       1.237      0.7388      0.5334      0.4056      0.2701      9.9932E-02   0.000    
  23    10.00       9.853       9.726       9.645       9.562       9.445       9.315       9.222       9.071       8.837    
        8.475       8.122       7.901       7.615       7.234       6.915       6.709       6.533       6.323       6.067    
        5.832       5.618       5.371       5.082       4.871       4.915       5.051       5.140       5.221       5.276    
        5.299       5.286       5.236       5.147       5.016       4.826       4.485       3.947       3.396       3.034    
        2.688       2.193       1.539      0.9987      0.7274      0.5442      0.3894      0.2298      9.1475E-02   0.000    
  24    10.00       9.830       9.738       9.641       9.523       9.401       9.301       9.198       9.052       8.742    
        8.404       8.143       7.892       7.511       7.094       6.865       6.692       6.518       6.280       6.039    
        5.830       5.558       5.163       4.616       3.948       4.220       4.626       4.909       5.077       5.164    
        5.208       5.202       5.165       5.068       4.920       4.680       4.248       3.737       3.324       2.947    
        2.521       1.969       1.383      0.9691      0.7292      0.5305      0.3555      0.2491      0.1223       0.000    
  25    10.00       9.849       9.755       9.633       9.510       9.397       9.298       9.203       8.985       8.685    
        8.424       8.160       7.832       7.415       7.105       6.900       6.703       6.495       6.277       6.070    
        5.830       5.569       5.005       3.964       2.113       3.489       4.234       4.678       4.953       5.097    
        5.150       5.150       5.103       4.968       4.765       4.435       4.025       3.623       3.270       2.828    
        2.314       1.786       1.291      0.9611      0.7562      0.5515      0.3747      0.2610      0.1625       0.000    
  26    10.00       9.869       9.778       9.649       9.517       9.415       9.310       9.169       8.954       8.745    
        8.500       8.139       7.739       7.401       7.167       6.967       6.738       6.481       6.271       6.097    
        5.898       5.640       5.152       4.386       3.538       3.892       4.341       4.672       4.926       5.082    
        5.126       5.113       5.033       4.870       4.644       4.329       3.875       3.492       3.159       2.622    
        2.039       1.574       1.279       1.049      0.8155      0.5955      0.4085      0.2836      0.1657       0.000    
  27    10.00       9.896       9.783       9.667       9.554       9.433       9.315       9.174       8.996       8.805    
        8.497       8.092       7.741       7.460       7.263       7.033       6.735       6.468       6.303       6.160    
        6.004       5.765       5.395       4.942       4.482       4.450       4.620       4.832       5.020       5.111    
        5.122       5.094       4.998       4.819       4.553       4.125       3.695       3.377       2.868       2.300    
        1.845       1.546       1.323       1.122      0.8916      0.6501      0.4439      0.3122      0.1970       0.000    
  28    10.00       9.903       9.810       9.706       9.594       9.466       9.336       9.200       9.045       8.823    
        8.464       8.111       7.805       7.530       7.321       7.096       6.852       6.593       6.360       6.212    
        6.087       5.917       5.677       5.348       5.065       4.899       4.932       5.066       5.131       5.155    
        5.136       5.085       4.965       4.734       4.380       3.933       3.559       3.108       2.574       2.169    
        1.843       1.589       1.371       1.162      0.9370      0.7095      0.5037      0.3555      0.2032       0.000    
  29    10.00       9.910       9.819       9.737       9.628       9.513       9.386       9.246       9.077       8.780    
        8.446       8.147       7.857       7.625       7.387       7.148       6.927       6.719       6.495       6.299    
        6.164       6.033       5.875       5.677       5.409       5.276       5.259       5.264       5.267       5.227    
        5.163       5.059       4.912       4.613       4.174       3.773       3.390       2.916       2.487       2.188    
        1.923       1.644       1.397       1.197      0.9941      0.7506      0.5324      0.3717      0.2061       0.000    
  30    10.00       9.922       9.847       9.775       9.677       9.564       9.450       9.291       9.065       8.795    
        8.457       8.134       7.897       7.666       7.441       7.225       7.046       6.853       6.634       6.426    
        6.260       6.149       6.014       5.880       5.733       5.614       5.571       5.477       5.414       5.314    
        5.178       4.997       4.783       4.463       4.112       3.733       3.321       2.874       2.547       2.274    
        1.958       1.679       1.463       1.234      0.9930      0.7771      0.5677      0.3949      0.2219       0.000    
  31    10.00       9.938       9.877       9.808       9.736       9.644       9.516       9.319       9.061       8.777    
        8.454       8.165       7.949       7.723       7.514       7.315       7.137       6.986       6.767       6.558    
        6.406       6.286       6.181       6.077       6.002       5.891       5.771       5.665       5.532       5.374    
        5.156       4.916       4.691       4.426       4.088       3.684       3.263       2.894       2.661       2.401    
        2.051       1.743       1.497       1.265       1.040      0.8180      0.6019      0.4157      0.2153       0.000    
  32    10.00       9.947       9.903       9.843       9.775       9.689       9.552       9.327       9.094       8.825    
        8.492       8.225       8.021       7.789       7.569       7.406       7.251       7.072       6.897       6.691    
        6.534       6.408       6.314       6.227       6.139       6.049       5.908       5.774       5.609       5.391    
        5.135       4.889       4.649       4.390       4.056       3.691       3.360       3.044       2.777       2.480    
        2.156       1.851       1.591       1.323       1.078      0.8902      0.6642      0.4082      0.1823       0.000    
  33    10.00       9.955       9.921       9.870       9.801       9.709       9.533       9.312       9.124       8.884    
        8.580       8.326       8.087       7.829       7.636       7.498       7.363       7.180       6.987       6.812    
        6.637       6.510       6.395       6.298       6.219       6.130       5.987       5.807       5.634       5.422    
        5.162       4.934       4.680       4.356       4.042       3.715       3.446       3.196       2.894       2.566    
        2.286       1.996       1.710       1.433       1.175      0.9648      0.7114      0.4107      0.1785       0.000    
  34    10.00       9.963       9.937       9.894       9.805       9.671       9.509       9.356       9.162       8.925    
        8.668       8.393       8.127       7.876       7.716       7.603       7.458       7.284       7.067       6.899    
        6.745       6.587       6.463       6.365       6.286       6.176       6.013       5.841       5.651       5.407    
        5.178       4.987       4.739       4.424       4.107       3.802       3.547       3.300       2.986       2.688    
        2.436       2.157       1.844       1.568       1.306       1.064      0.7616      0.4624      0.2425       0.000    
  35    10.00       9.969       9.937       9.877       9.768       9.638       9.523       9.391       9.235       8.981    
        8.700       8.429       8.162       7.954       7.809       7.690       7.537       7.354       7.146       6.948    
        6.798       6.652       6.525       6.431       6.344       6.232       6.051       5.845       5.623       5.369    
        5.194       4.998       4.743       4.511       4.243       3.921       3.636       3.427       3.128       2.808    
        2.564       2.278       1.964       1.692       1.420       1.155      0.8733      0.5788      0.2863       0.000    
  36    10.00       9.963       9.912       9.847       9.745       9.626       9.530       9.418       9.250       9.008    
        8.706       8.420       8.230       8.069       7.927       7.776       7.596       7.413       7.196       6.947    
        6.783       6.672       6.560       6.481       6.392       6.252       6.052       5.824       5.555       5.319    
        5.165       5.006       4.782       4.556       4.331       4.042       3.755       3.531       3.263       2.913    
        2.645       2.326       2.013       1.805       1.540       1.245      0.9634      0.6557      0.3208       0.000    
  37    10.00       9.943       9.890       9.825       9.726       9.622       9.514       9.408       9.256       8.977    
        8.664       8.445       8.331       8.178       8.002       7.854       7.638       7.414       7.147       6.896    
        6.779       6.687       6.579       6.494       6.392       6.224       6.021       5.731       5.480       5.319    
        5.180       5.006       4.784       4.605       4.374       4.100       3.876       3.659       3.358       2.974    
        2.622       2.323       2.105       1.889       1.624       1.344       1.062      0.7231      0.3971       0.000    
  38    10.00       9.936       9.868       9.800       9.715       9.616       9.503       9.388       9.216       8.955    
        8.721       8.547       8.401       8.264       8.078       7.843       7.604       7.351       7.056       6.882    
        6.787       6.668       6.563       6.490       6.377       6.184       5.889       5.613       5.476       5.351    
        5.203       5.018       4.816       4.637       4.411       4.160       3.976       3.755       3.371       2.947    
        2.642       2.392       2.175       1.953       1.718       1.433       1.152      0.8362      0.4133       0.000    
  39    10.00       9.919       9.852       9.792       9.710       9.599       9.480       9.363       9.202       8.989    
        8.806       8.673       8.511       8.325       8.066       7.777       7.510       7.218       7.005       6.888    
        6.753       6.617       6.536       6.467       6.359       6.106       5.803       5.629       5.502       5.372    
        5.206       5.029       4.834       4.654       4.482       4.276       4.033       3.766       3.388       2.992    
        2.670       2.411       2.241       2.054       1.790       1.508       1.223      0.8703      0.4078       0.000    
  40    10.00       9.910       9.847       9.786       9.702       9.589       9.474       9.358       9.215       9.038    
        8.888       8.772       8.579       8.297       7.977       7.688       7.406       7.153       6.995       6.856    
        6.700       6.580       6.510       6.426       6.282       6.058       5.848       5.671       5.527       5.393    
        5.230       5.039       4.854       4.703       4.551       4.342       4.062       3.782       3.398       2.973    
        2.672       2.467       2.279       2.119       1.841       1.533       1.272      0.8727      0.4063       0.000    
  41    10.00       9.918       9.846       9.773       9.684       9.595       9.498       9.391       9.250       9.090    
        8.947       8.809       8.567       8.237       7.907       7.636       7.359       7.115       6.962       6.812    
        6.657       6.550       6.474       6.375       6.225       6.054       5.910       5.738       5.557       5.399    
        5.243       5.070       4.892       4.760       4.599       4.390       4.109       3.723       3.281       2.955    
        2.736       2.537       2.343       2.121       1.831       1.536       1.313      0.9296      0.4215       0.000    
  42    10.00       9.919       9.836       9.773       9.707       9.625       9.523       9.402       9.282       9.160    
        8.981       8.749       8.470       8.156       7.850       7.603       7.331       7.092       6.928       6.760    
        6.615       6.521       6.437       6.346       6.208       6.087       5.965       5.771       5.569       5.426    
        5.297       5.107       4.916       4.787       4.638       4.416       4.070       3.615       3.210       2.967    
        2.801       2.624       2.377       2.081       1.803       1.573       1.341      0.9805      0.4838       0.000    
  43    10.00       9.912       9.843       9.789       9.736       9.658       9.558       9.443       9.311       9.126    
        8.899       8.662       8.400       8.073       7.798       7.569       7.326       7.086       6.878       6.721    
        6.589       6.495       6.423       6.348       6.229       6.103       5.979       5.779       5.602       5.496    
        5.339       5.133       4.949       4.817       4.642       4.354       3.955       3.523       3.228       3.041    
        2.865       2.662       2.358       2.054       1.809       1.587       1.387      0.9943      0.4544       0.000    
  44    10.00       9.912       9.852       9.803       9.741       9.682       9.600       9.449       9.256       9.044    
        8.854       8.614       8.299       8.025       7.804       7.542       7.275       7.025       6.818       6.681    
        6.583       6.501       6.427       6.348       6.246       6.117       5.950       5.784       5.664       5.537    
        5.396       5.217       5.005       4.804       4.591       4.269       3.850       3.494       3.266       3.086    
        2.908       2.667       2.373       2.110       1.848       1.609       1.364      0.8976      0.4128       0.000    
  45    10.00       9.922       9.866       9.802       9.742       9.691       9.558       9.380       9.186       9.004    
        8.848       8.528       8.200       8.001       7.766       7.476       7.186       6.954       6.787       6.676    
        6.601       6.523       6.441       6.348       6.235       6.109       5.968       5.839       5.733       5.602    
        5.438       5.253       5.035       4.780       4.526       4.179       3.785       3.505       3.332       3.146    
        2.909       2.633       2.381       2.141       1.909       1.671       1.274      0.7977      0.4015       0.000    
  46    10.00       9.937       9.877       9.803       9.734       9.635       9.491       9.356       9.193       8.998    
        8.740       8.437       8.174       7.922       7.671       7.391       7.122       6.950       6.812       6.705    
        6.629       6.554       6.450       6.334       6.225       6.118       6.006       5.888       5.781       5.666    
        5.518       5.322       5.075       4.773       4.410       4.049       3.758       3.560       3.378       3.184    
        2.905       2.610       2.359       2.170       1.948       1.638       1.186      0.7620      0.3757       0.000    
  47    10.00       9.949       9.892       9.819       9.701       9.570       9.447       9.342       9.192       8.936    
        8.627       8.349       8.121       7.910       7.643       7.338       7.101       6.938       6.827       6.738    
        6.656       6.568       6.460       6.338       6.230       6.146       6.053       5.936       5.813       5.700    
        5.571       5.407       5.079       4.657       4.302       4.042       3.798       3.627       3.467       3.199    
        2.858       2.546       2.319       2.188       1.942       1.563       1.122      0.7352      0.3714       0.000    
  48    10.00       9.954       9.896       9.787       9.666       9.553       9.429       9.323       9.172       8.883    
        8.546       8.313       8.126       7.868       7.557       7.282       7.103       6.939       6.829       6.760    
        6.677       6.571       6.454       6.342       6.254       6.186       6.103       5.974       5.832       5.710    
        5.575       5.378       5.036       4.685       4.369       4.082       3.864       3.689       3.484       3.144    
        2.777       2.536       2.356       2.124       1.801       1.464       1.087      0.7405      0.3921       0.000    
  49    10.00       9.952       9.864       9.759       9.668       9.547       9.426       9.314       9.124       8.818    
        8.517       8.294       8.060       7.799       7.565       7.308       7.060       6.907       6.840       6.775    
        6.696       6.575       6.439       6.342       6.274       6.224       6.129       5.980       5.831       5.720    
        5.574       5.314       5.013       4.765       4.499       4.183       3.901       3.685       3.444       3.079    
        2.783       2.572       2.323       1.988       1.702       1.399       1.069      0.7528      0.3834       0.000    
  50    10.00       9.939       9.843       9.747       9.674       9.561       9.427       9.284       9.078       8.837    
        8.532       8.233       7.990       7.782       7.594       7.306       7.023       6.907       6.849       6.786    
        6.710       6.573       6.428       6.340       6.286       6.240       6.134       5.973       5.831       5.718    
        5.559       5.286       5.054       4.841       4.554       4.239       3.954       3.667       3.320       2.997    
        2.840       2.618       2.254       1.918       1.678       1.388       1.101      0.7353      0.3020       0.000    

 HEAD WILL BE SAVED ON UNIT   51 AT END OF TIME STEP  69, STRESS PERIOD    2

 DRAWDOWN WILL BE SAVED ON UNIT   52 AT END OF TIME STEP  69, STRESS PERIOD    2
1
  VOLUMETRIC BUDGET FOR ENTIRE MODEL AT END OF TIME STEP 69 IN STRESS PERIOD   2
  ------------------------------------------------------------------------------

     CUMULATIVE VOLUMES      L**3       RATES FOR THIS TIME STEP      L**3/T
     ------------------                 ------------------------

           IN:                                      IN:
           ---                                      ---
             STORAGE =       32816.5898               STORAGE =         422.9252
       CONSTANT HEAD =       39407.6719         CONSTANT HEAD =         612.3049
               WELLS =           0.0000                 WELLS =           0.0000

            TOTAL IN =       72224.2656              TOTAL IN =        1035.2300

          OUT:                                     OUT:
          ----                                     ----
             STORAGE =       9.3745E-03               STORAGE =           0.0000
       CONSTANT HEAD =       37724.2344         CONSTANT HEAD =         535.2302
               WELLS =       34500.0000                 WELLS =         500.0000

           TOTAL OUT =       72224.2422             TOTAL OUT =        1035.2302

            IN - OUT =       2.3438E-02              IN - OUT =      -2.4414E-04

 PERCENT DISCREPANCY =           0.00     PERCENT DISCREPANCY =           0.00






          TIME SUMMARY AT END OF TIME STEP  69 IN STRESS PERIOD    2
                    SECONDS     MINUTES      HOURS       DAYS        YEARS
                    -----------------------------------------------------------
   TIME STEP LENGTH  86400.      1440.0      24.000      1.0000     2.73785E-03
 STRESS PERIOD TIME 5.96160E+06  99360.      1656.0      69.000     0.18891    
         TOTAL TIME 6.04800E+06 1.00800E+05  1680.0      70.000     0.19165    
1
 
 SOLVING FOR HEAD 

 OUTPUT CONTROL FOR STRESS PERIOD    2   TIME STEP  70
    SAVE HEAD FOR ALL LAYERS
    SAVE DRAWDOWN FOR ALL LAYERS
    SAVE BUDGET
    PRINT HEAD FOR ALL LAYERS
    PRINT BUDGET
 UBDSV1 SAVING "         STORAGE" ON UNIT  53 AT TIME STEP 70, STRESS PERIOD   2
 UBDSV2 SAVING "   CONSTANT HEAD" ON UNIT  53 AT TIME STEP 70, STRESS PERIOD   2
 UBDSV1 SAVING "FLOW RIGHT FACE " ON UNIT  53 AT TIME STEP 70, STRESS PERIOD   2
 UBDSV1 SAVING "FLOW FRONT FACE " ON UNIT  53 AT TIME STEP 70, STRESS PERIOD   2
1
              HEAD IN LAYER   1 AT END OF TIME STEP  70 IN STRESS PERIOD    2
  ---------------------------------------------------------------------------

            1           2           3           4           5           6           7           8           9          10
           11          12          13          14          15          16          17          18          19          20
           21          22          23          24          25          26          27          28          29          30
           31          32          33          34          35          36          37          38          39          40
           41          42          43          44          45          46          47          48          49          50
 ........................................................................................................................
   1    10.00       9.954       9.890       9.828       9.775       9.711       9.648       9.583       9.494       9.422    
        9.380       9.337       9.290       9.243       9.168       9.086       8.996       8.926       8.895       8.860    
        8.818       8.782       8.745       8.699       8.635       8.523       8.390       8.260       8.111       7.964    
        7.755       7.422       7.030       6.618       6.156       5.729       5.368       5.032       4.575       4.077    
        3.655       3.238       2.663       2.117       1.735       1.353       1.032      0.8242      0.5466       0.000    
   2    10.00       9.953       9.897       9.834       9.778       9.719       9.649       9.562       9.478       9.422    
        9.384       9.346       9.309       9.251       9.165       9.080       8.998       8.929       8.896       8.856    
        8.813       8.785       8.756       8.707       8.633       8.527       8.392       8.256       8.117       7.970    
        7.744       7.400       6.988       6.521       6.055       5.644       5.321       4.992       4.528       4.061    
        3.635       3.134       2.615       2.183       1.804       1.448       1.082      0.7827      0.4179       0.000    
   3    10.00       9.949       9.895       9.837       9.780       9.712       9.625       9.543       9.489       9.438    
        9.394       9.361       9.325       9.270       9.184       9.078       8.991       8.935       8.892       8.853    
        8.817       8.787       8.757       8.695       8.616       8.508       8.380       8.278       8.130       7.957    
        7.664       7.264       6.823       6.369       5.942       5.561       5.273       4.933       4.430       3.976    
        3.622       3.167       2.690       2.277       1.884       1.524       1.091      0.6715      0.2954       0.000    
   4    10.00       9.953       9.897       9.834       9.764       9.686       9.603       9.542       9.496       9.448    
        9.410       9.382       9.342       9.282       9.203       9.087       8.991       8.938       8.892       8.855    
        8.814       8.779       8.741       8.675       8.594       8.489       8.363       8.248       8.133       7.914    
        7.534       7.043       6.571       6.224       5.907       5.539       5.170       4.739       4.314       3.984    
        3.671       3.269       2.793       2.386       1.975       1.540       1.041      0.5961      0.2777       0.000    
   5    10.00       9.949       9.891       9.819       9.746       9.673       9.601       9.549       9.501       9.460    
        9.427       9.397       9.350       9.281       9.188       9.082       9.000       8.942       8.895       8.843    
        8.795       8.759       8.711       8.644       8.567       8.446       8.321       8.223       8.107       7.825    
        7.323       6.780       6.390       6.128       5.842       5.472       5.051       4.627       4.328       4.050    
        3.768       3.356       2.861       2.507       2.089       1.520      0.9470      0.5502      0.2768       0.000    
   6    10.00       9.937       9.868       9.811       9.743       9.667       9.606       9.559       9.510       9.472    
        9.441       9.404       9.344       9.263       9.184       9.096       9.007       8.935       8.874       8.814    
        8.772       8.732       8.689       8.617       8.504       8.388       8.295       8.188       7.993       7.584    
        7.022       6.530       6.232       6.037       5.807       5.400       4.945       4.612       4.393       4.152    
        3.881       3.509       3.020       2.580       2.063       1.453      0.8492      0.4839      0.2704       0.000    
   7    10.00       9.919       9.854       9.799       9.733       9.679       9.621       9.572       9.530       9.490    
        9.450       9.396       9.323       9.245       9.173       9.100       9.001       8.903       8.838       8.789    
        8.748       8.705       8.659       8.563       8.447       8.354       8.252       8.076       7.743       7.220    
        6.691       6.308       6.126       5.977       5.682       5.278       4.981       4.695       4.461       4.296    
        4.023       3.640       3.118       2.548       1.911       1.211      0.7118      0.4913      0.2488       0.000    
   8    10.00       9.914       9.854       9.795       9.736       9.688       9.638       9.591       9.550       9.511    
        9.452       9.375       9.298       9.229       9.161       9.071       8.953       8.861       8.812       8.765    
        8.716       8.680       8.604       8.499       8.396       8.286       8.091       7.812       7.352       6.900    
        6.510       6.212       6.076       5.893       5.559       5.250       5.005       4.796       4.612       4.418    
        4.137       3.666       3.063       2.413       1.687       1.094      0.7533      0.4819      0.2221       0.000    
   9    10.00       9.918       9.850       9.792       9.750       9.709       9.660       9.614       9.568       9.523    
        9.447       9.353       9.273       9.202       9.121       9.020       8.913       8.832       8.781       8.732    
        8.687       8.628       8.522       8.424       8.317       8.162       7.877       7.456       7.002       6.680    
        6.374       6.161       6.009       5.765       5.459       5.223       5.050       4.894       4.737       4.528    
        4.179       3.689       3.049       2.323       1.655       1.132      0.7685      0.4781      0.2371       0.000    
  10    10.00       9.916       9.847       9.799       9.762       9.722       9.680       9.639       9.585       9.514    
        9.422       9.326       9.248       9.171       9.084       8.967       8.860       8.795       8.750       8.701    
        8.655       8.557       8.443       8.335       8.184       7.949       7.521       7.066       6.714       6.472    
        6.293       6.121       5.915       5.665       5.410       5.234       5.109       4.981       4.806       4.562    
        4.188       3.652       2.968       2.320       1.792       1.297      0.8232      0.5079      0.2677       0.000    
  11    10.00       9.905       9.852       9.812       9.774       9.739       9.701       9.647       9.570       9.490    
        9.398       9.304       9.229       9.125       9.006       8.904       8.827       8.767       8.722       8.668    
        8.584       8.457       8.291       8.131       7.866       7.514       7.136       6.838       6.558       6.388    
        6.237       6.010       5.779       5.595       5.428       5.303       5.179       5.014       4.807       4.522    
        4.171       3.698       3.007       2.417       1.949       1.475      0.9493      0.5036      0.2022       0.000    
  12    10.00       9.914       9.861       9.819       9.787       9.750       9.708       9.634       9.543       9.460    
        9.372       9.278       9.177       9.052       8.954       8.866       8.786       8.736       8.677       8.593    
        8.429       8.210       7.978       7.738       7.409       7.141       6.947       6.640       6.413       6.282    
        6.123       5.910       5.731       5.578       5.473       5.360       5.213       5.027       4.780       4.482    
        4.137       3.675       3.042       2.516       2.093       1.581      0.9998      0.4770      0.1586       0.000    
  13    10.00       9.932       9.883       9.838       9.797       9.755       9.692       9.601       9.506       9.424    
        9.331       9.237       9.130       9.001       8.888       8.800       8.743       8.678       8.595       8.395    
        8.094       7.828       7.578       7.278       7.023       6.905       6.664       6.387       6.273       6.167    
        5.998       5.817       5.691       5.591       5.506       5.402       5.234       5.003       4.762       4.455    
        4.113       3.643       2.991       2.499       2.107       1.548      0.9315      0.4316      0.1247       0.000    
  14    10.00       9.950       9.906       9.858       9.809       9.744       9.653       9.556       9.471       9.378    
        9.285       9.198       9.071       8.925       8.823       8.753       8.659       8.558       8.358       8.005    
        7.684       7.449       7.120       6.876       6.763       6.631       6.383       6.225       6.110       6.007    
        5.867       5.760       5.688       5.610       5.523       5.417       5.229       4.976       4.718       4.405    
        4.039       3.472       2.858       2.461       1.981       1.443      0.9181      0.3941      0.1015       0.000    
  15    10.00       9.961       9.916       9.867       9.810       9.713       9.600       9.515       9.430       9.340    
        9.270       9.168       8.999       8.841       8.746       8.621       8.494       8.365       8.027       7.614    
        7.351       7.018       6.720       6.630       6.563       6.389       6.191       6.037       5.956       5.883    
        5.802       5.745       5.691       5.627       5.535       5.406       5.188       4.901       4.629       4.342    
        3.945       3.394       2.863       2.329       1.748       1.266      0.7892      0.3471      0.1042       0.000    
  16    10.00       9.971       9.927       9.869       9.780       9.660       9.563       9.494       9.417       9.324    
        9.229       9.082       8.887       8.735       8.597       8.449       8.362       8.100       7.610       7.232    
        6.968       6.642       6.534       6.481       6.353       6.134       5.975       5.906       5.885       5.838    
        5.780       5.735       5.692       5.623       5.513       5.352       5.090       4.830       4.616       4.308    
        3.857       3.262       2.652       2.057       1.562       1.085      0.6722      0.3293      0.1111       0.000    
  17    10.00       9.971       9.924       9.848       9.737       9.616       9.535       9.472       9.386       9.281    
        9.123       8.935       8.760       8.593       8.422       8.280       8.065       7.625       7.171       6.911    
        6.653       6.456       6.371       6.248       6.048       5.886       5.846       5.842       5.831       5.792    
        5.750       5.716       5.678       5.613       5.453       5.232       5.007       4.825       4.624       4.236    
        3.632       3.025       2.440       1.856       1.336      0.8783      0.5632      0.2944      0.1210       0.000    
  18    10.00       9.964       9.909       9.817       9.679       9.582       9.517       9.431       9.332       9.186    
        8.993       8.826       8.650       8.425       8.201       7.964       7.650       7.206       6.869       6.643    
        6.435       6.271       6.141       5.964       5.829       5.789       5.780       5.780       5.762       5.734    
        5.713       5.689       5.645       5.533       5.366       5.179       4.992       4.830       4.547       4.027    
        3.409       2.761       2.135       1.655       1.240      0.8233      0.4838      0.2435      0.1167       0.000    
  19    10.00       9.955       9.895       9.761       9.623       9.566       9.494       9.387       9.264       9.107    
        8.931       8.774       8.517       8.175       7.909       7.666       7.288       6.887       6.661       6.488    
        6.275       6.075       5.933       5.798       5.733       5.720       5.717       5.700       5.674       5.669    
        5.660       5.642       5.577       5.469       5.331       5.151       4.983       4.749       4.263       3.721    
        3.220       2.549       1.953       1.571       1.160      0.7429      0.4369      0.2480      0.1270       0.000    
  20    10.00       9.945       9.843       9.706       9.605       9.543       9.465       9.350       9.214       9.071    
        8.890       8.649       8.265       7.927       7.691       7.391       7.018       6.800       6.594       6.355    
        6.120       5.942       5.794       5.700       5.653       5.630       5.601       5.596       5.583       5.591    
        5.595       5.579       5.511       5.413       5.272       5.118       4.907       4.480       3.952       3.518    
        2.973       2.353       1.907       1.537       1.121      0.6595      0.3818      0.2582      0.1330       0.000    
  21    10.00       9.910       9.800       9.685       9.586       9.521       9.436       9.302       9.166       9.030    
        8.788       8.420       8.030       7.775       7.512       7.197       6.922       6.715       6.469       6.216    
        5.991       5.818       5.689       5.589       5.523       5.473       5.457       5.467       5.471       5.489    
        5.509       5.484       5.416       5.326       5.185       5.016       4.686       4.235       3.817       3.290    
        2.772       2.283       1.905       1.531      0.9453      0.5345      0.3866      0.2917      0.1399       0.000    
  22    10.00       9.886       9.755       9.652       9.573       9.494       9.375       9.250       9.129       8.942    
        8.631       8.215       7.906       7.677       7.382       7.060       6.797       6.579       6.355       6.116    
        5.893       5.709       5.537       5.383       5.297       5.277       5.295       5.310       5.348       5.373    
        5.397       5.369       5.314       5.220       5.080       4.912       4.576       4.142       3.596       3.085    
        2.709       2.318       1.864       1.236      0.7383      0.5331      0.4053      0.2699      9.9866E-02   0.000    
  23    10.00       9.852       9.724       9.643       9.560       9.442       9.312       9.218       9.066       8.831    
        8.468       8.113       7.891       7.605       7.223       6.904       6.697       6.520       6.311       6.054    
        5.819       5.604       5.358       5.068       4.858       4.901       5.037       5.127       5.207       5.262    
        5.285       5.272       5.223       5.135       5.005       4.815       4.476       3.940       3.391       3.030    
        2.685       2.191       1.537      0.9980      0.7269      0.5439      0.3892      0.2297      9.1419E-02   0.000    
  24    10.00       9.829       9.737       9.639       9.521       9.397       9.298       9.194       9.047       8.736    
        8.396       8.134       7.883       7.501       7.083       6.854       6.680       6.506       6.268       6.026    
        5.818       5.545       5.149       4.602       3.934       4.206       4.612       4.895       5.063       5.150    
        5.195       5.189       5.152       5.056       4.909       4.670       4.239       3.731       3.319       2.944    
        2.519       1.967       1.382      0.9684      0.7287      0.5302      0.3553      0.2490      0.1222       0.000    
  25    10.00       9.849       9.754       9.631       9.507       9.394       9.295       9.199       8.980       8.678    
        8.417       8.152       7.823       7.404       7.094       6.888       6.691       6.482       6.265       6.057    
        5.817       5.556       4.991       3.950       2.099       3.475       4.220       4.663       4.939       5.083    
        5.136       5.136       5.090       4.956       4.754       4.426       4.017       3.617       3.265       2.825    
        2.311       1.784       1.290      0.9604      0.7557      0.5512      0.3745      0.2608      0.1624       0.000    
  26    10.00       9.869       9.777       9.647       9.515       9.412       9.306       9.165       8.949       8.739    
        8.493       8.131       7.730       7.391       7.156       6.955       6.726       6.469       6.259       6.085    
        5.885       5.627       5.139       4.372       3.523       3.877       4.326       4.657       4.912       5.068    
        5.112       5.100       5.020       4.858       4.633       4.320       3.868       3.486       3.155       2.619    
        2.037       1.573       1.278       1.049      0.8150      0.5952      0.4083      0.2834      0.1656       0.000    
  27    10.00       9.895       9.782       9.666       9.551       9.430       9.312       9.169       8.991       8.799    
        8.490       8.084       7.731       7.450       7.252       7.022       6.723       6.455       6.291       6.148    
        5.991       5.752       5.382       4.929       4.468       4.436       4.606       4.817       5.005       5.097    
        5.109       5.081       4.985       4.807       4.543       4.117       3.689       3.372       2.865       2.298    
        1.843       1.545       1.322       1.122      0.8911      0.6497      0.4436      0.3120      0.1969       0.000    
  28    10.00       9.903       9.809       9.704       9.592       9.464       9.333       9.196       9.041       8.817    
        8.457       8.103       7.796       7.520       7.310       7.085       6.841       6.581       6.348       6.199    
        6.075       5.904       5.664       5.334       5.051       4.884       4.918       5.052       5.116       5.141    
        5.123       5.072       4.953       4.724       4.371       3.926       3.553       3.104       2.572       2.167    
        1.842       1.588       1.370       1.161      0.9365      0.7091      0.5034      0.3554      0.2031       0.000    
  29    10.00       9.910       9.818       9.736       9.626       9.510       9.383       9.242       9.072       8.774    
        8.439       8.139       7.848       7.616       7.377       7.137       6.916       6.708       6.483       6.287    
        6.152       6.021       5.862       5.664       5.395       5.262       5.245       5.250       5.253       5.213    
        5.150       5.047       4.900       4.604       4.166       3.768       3.385       2.913       2.485       2.186    
        1.922       1.643       1.396       1.196      0.9935      0.7502      0.5321      0.3715      0.2060       0.000    
  30    10.00       9.922       9.846       9.774       9.676       9.562       9.448       9.288       9.060       8.789    
        8.451       8.127       7.889       7.657       7.432       7.214       7.035       6.842       6.622       6.414    
        6.248       6.137       6.001       5.867       5.720       5.600       5.557       5.463       5.401       5.301    
        5.166       4.986       4.773       4.456       4.106       3.728       3.317       2.871       2.544       2.272    
        1.957       1.677       1.462       1.234      0.9925      0.7767      0.5675      0.3947      0.2218       0.000    
  31    10.00       9.938       9.876       9.807       9.735       9.642       9.513       9.316       9.057       8.771    
        8.447       8.157       7.940       7.714       7.505       7.305       7.126       6.975       6.756       6.546    
        6.394       6.274       6.168       6.065       5.989       5.878       5.758       5.653       5.519       5.362    
        5.145       4.907       4.683       4.419       4.082       3.679       3.260       2.891       2.659       2.399    
        2.050       1.742       1.496       1.264       1.040      0.8177      0.6017      0.4155      0.2152       0.000    
  32    10.00       9.946       9.902       9.843       9.774       9.687       9.550       9.324       9.090       8.820    
        8.486       8.217       8.013       7.781       7.560       7.397       7.241       7.062       6.886       6.680    
        6.523       6.397       6.302       6.215       6.127       6.037       5.896       5.762       5.598       5.381    
        5.126       4.881       4.642       4.384       4.052       3.687       3.357       3.041       2.774       2.478    
        2.155       1.850       1.590       1.323       1.078      0.8899      0.6640      0.4081      0.1823       0.000    
  33    10.00       9.955       9.920       9.870       9.800       9.708       9.531       9.309       9.120       8.879    
        8.574       8.320       8.080       7.821       7.627       7.489       7.354       7.170       6.976       6.801    
        6.627       6.499       6.384       6.287       6.208       6.118       5.976       5.797       5.624       5.413    
        5.155       4.927       4.674       4.351       4.038       3.711       3.443       3.193       2.892       2.565    
        2.284       1.995       1.709       1.433       1.175      0.9645      0.7112      0.4106      0.1785       0.000    
  34    10.00       9.963       9.936       9.894       9.804       9.670       9.507       9.354       9.158       8.921    
        8.662       8.387       8.120       7.869       7.708       7.595       7.449       7.275       7.058       6.889    
        6.735       6.576       6.452       6.354       6.275       6.166       6.003       5.831       5.643       5.399    
        5.172       4.980       4.734       4.420       4.103       3.799       3.544       3.298       2.985       2.686    
        2.435       2.156       1.844       1.567       1.306       1.064      0.7614      0.4623      0.2424       0.000    
  35    10.00       9.969       9.937       9.877       9.767       9.637       9.521       9.389       9.232       8.977    
        8.696       8.423       8.156       7.947       7.802       7.682       7.529       7.346       7.137       6.938    
        6.789       6.642       6.516       6.422       6.335       6.223       6.042       5.836       5.616       5.363    
        5.188       4.993       4.739       4.508       4.241       3.919       3.634       3.425       3.127       2.807    
        2.563       2.277       1.964       1.692       1.419       1.154      0.8731      0.5787      0.2863       0.000    
  36    10.00       9.963       9.912       9.846       9.744       9.624       9.528       9.416       9.248       9.005    
        8.701       8.415       8.224       8.062       7.920       7.769       7.589       7.405       7.188       6.938    
        6.775       6.664       6.552       6.473       6.383       6.244       6.045       5.817       5.549       5.314    
        5.161       5.002       4.779       4.553       4.329       4.040       3.754       3.529       3.262       2.912    
        2.644       2.326       2.013       1.805       1.540       1.245      0.9632      0.6555      0.3207       0.000    
  37    10.00       9.943       9.889       9.824       9.726       9.621       9.512       9.406       9.254       8.973    
        8.660       8.440       8.326       8.172       7.996       7.847       7.631       7.407       7.140       6.890    
        6.772       6.679       6.572       6.487       6.385       6.217       6.015       5.726       5.476       5.316    
        5.177       5.003       4.782       4.603       4.372       4.099       3.874       3.658       3.357       2.973    
        2.622       2.322       2.104       1.889       1.623       1.344       1.061      0.7230      0.3970       0.000    
  38    10.00       9.936       9.867       9.800       9.714       9.615       9.501       9.387       9.214       8.952    
        8.718       8.542       8.397       8.258       8.072       7.837       7.598       7.344       7.050       6.876    
        6.781       6.662       6.557       6.484       6.371       6.179       5.884       5.610       5.473       5.348    
        5.200       5.015       4.813       4.635       4.409       4.159       3.974       3.754       3.370       2.947    
        2.642       2.391       2.175       1.952       1.717       1.433       1.152      0.8361      0.4132       0.000    
  39    10.00       9.918       9.852       9.791       9.709       9.598       9.479       9.361       9.200       8.986    
        8.803       8.669       8.507       8.320       8.061       7.772       7.505       7.212       7.000       6.883    
        6.747       6.612       6.531       6.462       6.354       6.101       5.799       5.626       5.499       5.369    
        5.204       5.027       4.832       4.652       4.481       4.274       4.032       3.765       3.387       2.992    
        2.669       2.411       2.240       2.054       1.789       1.508       1.223      0.8702      0.4078       0.000    
  40    10.00       9.910       9.846       9.786       9.702       9.588       9.472       9.357       9.213       9.036    
        8.885       8.769       8.575       8.293       7.973       7.684       7.402       7.149       6.991       6.851    
        6.696       6.576       6.505       6.422       6.279       6.055       5.845       5.669       5.524       5.390    
        5.228       5.037       4.852       4.701       4.550       4.341       4.060       3.781       3.397       2.973    
        2.671       2.466       2.279       2.119       1.841       1.533       1.272      0.8725      0.4062       0.000    
  41    10.00       9.918       9.845       9.773       9.683       9.594       9.497       9.390       9.248       9.088    
        8.944       8.806       8.564       8.233       7.904       7.633       7.355       7.112       6.958       6.808    
        6.653       6.547       6.470       6.372       6.222       6.051       5.908       5.736       5.555       5.397    
        5.241       5.068       4.890       4.758       4.597       4.388       4.108       3.722       3.281       2.954    
        2.735       2.537       2.342       2.120       1.831       1.536       1.313      0.9295      0.4215       0.000    
  42    10.00       9.919       9.836       9.773       9.707       9.625       9.522       9.401       9.280       9.158    
        8.979       8.747       8.467       8.153       7.847       7.599       7.328       7.089       6.925       6.757    
        6.612       6.518       6.434       6.343       6.206       6.085       5.963       5.768       5.566       5.424    
        5.295       5.105       4.914       4.786       4.637       4.414       4.069       3.614       3.209       2.966    
        2.801       2.624       2.376       2.081       1.803       1.572       1.341      0.9803      0.4837       0.000    
  43    10.00       9.912       9.843       9.788       9.736       9.657       9.557       9.442       9.310       9.124    
        8.897       8.660       8.398       8.071       7.795       7.566       7.323       7.083       6.875       6.719    
        6.586       6.492       6.420       6.345       6.227       6.100       5.977       5.776       5.600       5.494    
        5.337       5.131       4.947       4.815       4.641       4.353       3.954       3.522       3.227       3.041    
        2.865       2.661       2.358       2.054       1.809       1.586       1.387      0.9941      0.4543       0.000    
  44    10.00       9.912       9.852       9.803       9.740       9.682       9.599       9.448       9.255       9.043    
        8.853       8.612       8.297       8.023       7.802       7.540       7.273       7.022       6.816       6.678    
        6.580       6.498       6.424       6.346       6.244       6.114       5.948       5.781       5.662       5.535    
        5.394       5.215       5.004       4.802       4.590       4.267       3.849       3.493       3.265       3.085    
        2.907       2.666       2.373       2.110       1.847       1.609       1.364      0.8975      0.4127       0.000    
  45    10.00       9.922       9.866       9.802       9.742       9.691       9.558       9.379       9.185       9.003    
        8.846       8.526       8.199       8.000       7.764       7.474       7.184       6.952       6.784       6.673    
        6.598       6.520       6.438       6.346       6.233       6.106       5.965       5.836       5.731       5.600    
        5.436       5.251       5.033       4.779       4.525       4.177       3.784       3.504       3.331       3.145    
        2.909       2.632       2.380       2.141       1.909       1.671       1.274      0.7976      0.4014       0.000    
  46    10.00       9.937       9.877       9.803       9.734       9.634       9.490       9.355       9.192       8.997    
        8.739       8.435       8.173       7.920       7.669       7.389       7.120       6.948       6.810       6.703    
        6.627       6.551       6.448       6.332       6.223       6.116       6.004       5.886       5.779       5.664    
        5.516       5.320       5.073       4.772       4.409       4.048       3.757       3.559       3.377       3.184    
        2.904       2.610       2.359       2.170       1.947       1.638       1.186      0.7619      0.3756       0.000    
  47    10.00       9.949       9.892       9.819       9.701       9.570       9.446       9.341       9.191       8.935    
        8.626       8.347       8.119       7.908       7.642       7.336       7.099       6.936       6.825       6.736    
        6.654       6.565       6.457       6.335       6.228       6.143       6.051       5.934       5.811       5.698    
        5.569       5.406       5.078       4.655       4.301       4.041       3.797       3.626       3.466       3.198    
        2.857       2.545       2.318       2.187       1.942       1.562       1.122      0.7350      0.3714       0.000    
  48    10.00       9.954       9.896       9.787       9.666       9.553       9.429       9.322       9.171       8.882    
        8.545       8.311       8.124       7.866       7.555       7.280       7.101       6.937       6.827       6.758    
        6.675       6.569       6.452       6.340       6.252       6.184       6.101       5.972       5.830       5.708    
        5.573       5.376       5.035       4.684       4.367       4.081       3.863       3.688       3.483       3.143    
        2.776       2.536       2.355       2.123       1.800       1.464       1.087      0.7404      0.3920       0.000    
  49    10.00       9.952       9.864       9.759       9.668       9.546       9.426       9.313       9.123       8.817    
        8.515       8.292       8.059       7.797       7.563       7.306       7.058       6.905       6.838       6.773    
        6.694       6.572       6.437       6.340       6.272       6.222       6.127       5.978       5.829       5.718    
        5.572       5.313       5.012       4.763       4.498       4.182       3.900       3.685       3.443       3.078    
        2.783       2.572       2.323       1.988       1.702       1.399       1.069      0.7527      0.3833       0.000    
  50    10.00       9.939       9.843       9.746       9.673       9.560       9.426       9.283       9.078       8.836    
        8.530       8.231       7.988       7.780       7.592       7.304       7.021       6.905       6.846       6.783    
        6.708       6.571       6.426       6.338       6.284       6.238       6.132       5.971       5.829       5.716    
        5.557       5.284       5.052       4.840       4.553       4.238       3.953       3.667       3.319       2.996    
        2.839       2.617       2.254       1.917       1.677       1.388       1.101      0.7352      0.3020       0.000    

 HEAD WILL BE SAVED ON UNIT   51 AT END OF TIME STEP  70, STRESS PERIOD    2

 DRAWDOWN WILL BE SAVED ON UNIT   52 AT END OF TIME STEP  70, STRESS PERIOD    2
1
  VOLUMETRIC BUDGET FOR ENTIRE MODEL AT END OF TIME STEP 70 IN STRESS PERIOD   2
  ------------------------------------------------------------------------------

     CUMULATIVE VOLUMES      L**3       RATES FOR THIS TIME STEP      L**3/T
     ------------------                 ------------------------

           IN:                                      IN:
           ---                                      ---
             STORAGE =       33237.4961               STORAGE =         420.9055
       CONSTANT HEAD =       40021.7617         CONSTANT HEAD =         614.0885
               WELLS =           0.0000                 WELLS =           0.0000

            TOTAL IN =       73259.2578              TOTAL IN =        1034.9939

          OUT:                                     OUT:
          ----                                     ----
             STORAGE =       9.3745E-03               STORAGE =           0.0000
       CONSTANT HEAD =       38259.2266         CONSTANT HEAD =         534.9938
               WELLS =       35000.0000                 WELLS =         500.0000

           TOTAL OUT =       73259.2344             TOTAL OUT =        1034.9938

            IN - OUT =       2.3438E-02              IN - OUT =       1.2207E-04

 PERCENT DISCREPANCY =           0.00     PERCENT DISCREPANCY =           0.00






          TIME SUMMARY AT END OF TIME STEP  70 IN STRESS PERIOD    2
                    SECONDS     MINUTES      HOURS       DAYS        YEARS
                    -----------------------------------------------------------
   TIME STEP LENGTH  86400.      1440.0      24.000      1.0000     2.73785E-03
 STRESS PERIOD TIME 6.04800E+06 1.00800E+05  1680.0      70.000     0.19165    
         TOTAL TIME 6.13440E+06 1.02240E+05  1704.0      71.000     0.19439    
1
 
 SOLVING FOR HEAD 

 OUTPUT CONTROL FOR STRESS PERIOD    2   TIME STEP  71
    SAVE HEAD FOR ALL LAYERS
    SAVE DRAWDOWN FOR ALL LAYERS
    SAVE BUDGET
    PRINT HEAD FOR ALL LAYERS
    PRINT BUDGET
 UBDSV1 SAVING "         STORAGE" ON UNIT  53 AT TIME STEP 71, STRESS PERIOD   2
 UBDSV2 SAVING "   CONSTANT HEAD" ON UNIT  53 AT TIME STEP 71, STRESS PERIOD   2
 UBDSV1 SAVING "FLOW RIGHT FACE " ON UNIT  53 AT TIME STEP 71, STRESS PERIOD   2
 UBDSV1 SAVING "FLOW FRONT FACE " ON UNIT  53 AT TIME STEP 71, STRESS PERIOD   2
1
              HEAD IN LAYER   1 AT END OF TIME STEP  71 IN STRESS PERIOD    2
  ---------------------------------------------------------------------------

            1           2           3           4           5           6           7           8           9          10
           11          12          13          14          15          16          17          18          19          20
           21          22          23          24          25          26          27          28          29          30
           31          32          33          34          35          36          37          38          39          40
           41          42          43          44          45          46          47          48          49          50
 ........................................................................................................................
   1    10.00       9.954       9.890       9.827       9.775       9.710       9.647       9.581       9.493       9.420    
        9.378       9.335       9.288       9.241       9.166       9.083       8.993       8.923       8.892       8.857    
        8.815       8.778       8.741       8.695       8.631       8.520       8.386       8.256       8.108       7.960    
        7.751       7.418       7.027       6.614       6.152       5.725       5.364       5.029       4.571       4.075    
        3.653       3.236       2.661       2.116       1.734       1.352       1.031      0.8236      0.5462       0.000    
   2    10.00       9.953       9.896       9.833       9.777       9.718       9.648       9.561       9.476       9.420    
        9.382       9.343       9.307       9.249       9.162       9.077       8.995       8.926       8.892       8.853    
        8.810       8.782       8.752       8.703       8.629       8.523       8.388       8.253       8.113       7.966    
        7.740       7.396       6.984       6.518       6.051       5.640       5.317       4.988       4.524       4.058    
        3.632       3.131       2.613       2.182       1.803       1.447       1.081      0.7821      0.4176       0.000    
   3    10.00       9.949       9.894       9.836       9.779       9.711       9.624       9.541       9.487       9.437    
        9.392       9.359       9.323       9.268       9.181       9.075       8.988       8.932       8.889       8.850    
        8.813       8.784       8.754       8.692       8.613       8.504       8.376       8.274       8.126       7.953    
        7.660       7.260       6.819       6.365       5.938       5.557       5.269       4.930       4.427       3.973    
        3.619       3.164       2.688       2.275       1.882       1.523       1.091      0.6710      0.2951       0.000    
   4    10.00       9.953       9.897       9.834       9.764       9.685       9.601       9.540       9.494       9.446    
        9.408       9.380       9.340       9.280       9.201       9.084       8.988       8.935       8.889       8.852    
        8.811       8.775       8.737       8.671       8.590       8.485       8.359       8.244       8.129       7.910    
        7.530       7.039       6.566       6.219       5.902       5.535       5.166       4.735       4.310       3.981    
        3.667       3.267       2.791       2.384       1.973       1.538       1.040      0.5957      0.2775       0.000    
   5    10.00       9.949       9.891       9.818       9.745       9.672       9.600       9.548       9.500       9.458    
        9.425       9.395       9.348       9.278       9.186       9.079       8.997       8.939       8.892       8.840    
        8.791       8.755       8.707       8.640       8.563       8.442       8.317       8.218       8.103       7.820    
        7.318       6.775       6.385       6.122       5.837       5.468       5.047       4.622       4.324       4.047    
        3.765       3.353       2.859       2.504       2.087       1.518      0.9463      0.5498      0.2766       0.000    
   6    10.00       9.937       9.867       9.811       9.742       9.666       9.605       9.558       9.508       9.471    
        9.440       9.402       9.342       9.261       9.181       9.093       9.004       8.932       8.871       8.811    
        8.768       8.729       8.685       8.613       8.500       8.384       8.291       8.183       7.988       7.579    
        7.017       6.524       6.226       6.031       5.801       5.395       4.940       4.607       4.389       4.148    
        3.877       3.506       3.018       2.577       2.061       1.452      0.8485      0.4835      0.2702       0.000    
   7    10.00       9.919       9.853       9.798       9.733       9.678       9.619       9.571       9.529       9.488    
        9.448       9.394       9.321       9.242       9.170       9.097       8.998       8.900       8.834       8.786    
        8.744       8.701       8.655       8.559       8.442       8.350       8.247       8.072       7.738       7.215    
        6.685       6.301       6.120       5.970       5.676       5.273       4.975       4.690       4.456       4.291    
        4.019       3.637       3.115       2.546       1.909       1.210      0.7113      0.4909      0.2486       0.000    
   8    10.00       9.914       9.853       9.794       9.735       9.687       9.636       9.589       9.549       9.510    
        9.451       9.373       9.296       9.227       9.158       9.068       8.949       8.858       8.808       8.761    
        8.712       8.676       8.600       8.495       8.391       8.281       8.086       7.806       7.346       6.894    
        6.503       6.205       6.069       5.886       5.553       5.244       4.999       4.791       4.606       4.414    
        4.132       3.663       3.060       2.411       1.686       1.093      0.7527      0.4816      0.2219       0.000    
   9    10.00       9.918       9.849       9.791       9.749       9.708       9.659       9.613       9.566       9.521    
        9.446       9.350       9.271       9.200       9.118       9.017       8.909       8.828       8.777       8.728    
        8.683       8.624       8.517       8.420       8.312       8.156       7.871       7.449       6.995       6.673    
        6.366       6.154       6.002       5.758       5.453       5.216       5.044       4.888       4.732       4.523    
        4.174       3.685       3.046       2.321       1.653       1.131      0.7679      0.4778      0.2369       0.000    
  10    10.00       9.916       9.847       9.799       9.761       9.721       9.679       9.638       9.584       9.512    
        9.420       9.324       9.246       9.168       9.081       8.964       8.856       8.791       8.746       8.697    
        8.651       8.552       8.438       8.330       8.179       7.943       7.514       7.059       6.706       6.464    
        6.285       6.113       5.907       5.658       5.402       5.228       5.102       4.975       4.800       4.557    
        4.183       3.648       2.965       2.318       1.790       1.296      0.8226      0.5075      0.2675       0.000    
  11    10.00       9.905       9.851       9.811       9.773       9.738       9.700       9.646       9.569       9.488    
        9.395       9.301       9.226       9.122       9.003       8.900       8.823       8.763       8.718       8.663    
        8.580       8.452       8.286       8.125       7.860       7.507       7.128       6.830       6.550       6.380    
        6.229       6.001       5.771       5.587       5.421       5.296       5.172       5.008       4.801       4.517    
        4.167       3.694       3.004       2.415       1.947       1.474      0.9486      0.5032      0.2021       0.000    
  12    10.00       9.913       9.860       9.818       9.786       9.749       9.707       9.633       9.541       9.458    
        9.370       9.276       9.174       9.048       8.950       8.862       8.782       8.731       8.673       8.588    
        8.424       8.204       7.972       7.730       7.401       7.132       6.938       6.631       6.403       6.273    
        6.114       5.901       5.722       5.570       5.465       5.352       5.205       5.020       4.774       4.476    
        4.132       3.671       3.039       2.514       2.091       1.580      0.9991      0.4767      0.1585       0.000    
  13    10.00       9.932       9.883       9.837       9.796       9.754       9.691       9.599       9.504       9.422    
        9.329       9.234       9.127       8.997       8.884       8.796       8.739       8.673       8.590       8.389    
        8.087       7.821       7.570       7.269       7.014       6.895       6.654       6.377       6.263       6.157    
        5.989       5.808       5.682       5.582       5.498       5.394       5.227       4.996       4.755       4.449    
        4.107       3.639       2.988       2.497       2.106       1.546      0.9308      0.4313      0.1246       0.000    
  14    10.00       9.950       9.906       9.857       9.808       9.743       9.651       9.554       9.469       9.375    
        9.282       9.195       9.067       8.921       8.818       8.748       8.654       8.552       8.352       7.998    
        7.676       7.440       7.111       6.866       6.753       6.621       6.373       6.215       6.100       5.997    
        5.857       5.750       5.679       5.601       5.514       5.409       5.221       4.969       4.711       4.399    
        4.034       3.468       2.855       2.459       1.979       1.441      0.9174      0.3938      0.1014       0.000    
  15    10.00       9.961       9.916       9.867       9.810       9.711       9.598       9.513       9.428       9.338    
        9.267       9.164       8.995       8.836       8.742       8.616       8.488       8.359       8.020       7.606    
        7.342       7.008       6.709       6.620       6.553       6.378       6.180       6.026       5.945       5.872    
        5.792       5.734       5.681       5.617       5.526       5.397       5.180       4.893       4.623       4.335    
        3.940       3.389       2.860       2.327       1.746       1.265      0.7886      0.3468      0.1041       0.000    
  16    10.00       9.971       9.927       9.868       9.779       9.658       9.561       9.491       9.415       9.321    
        9.226       9.078       8.883       8.730       8.592       8.443       8.356       8.093       7.602       7.222    
        6.958       6.631       6.523       6.470       6.342       6.122       5.964       5.894       5.873       5.826    
        5.769       5.724       5.682       5.613       5.504       5.343       5.081       4.822       4.609       4.302    
        3.852       3.258       2.649       2.055       1.561       1.084      0.6717      0.3291      0.1110       0.000    
  17    10.00       9.971       9.924       9.847       9.736       9.615       9.533       9.469       9.383       9.278    
        9.119       8.930       8.754       8.587       8.416       8.273       8.057       7.616       7.160       6.900    
        6.642       6.445       6.360       6.236       6.036       5.874       5.834       5.830       5.820       5.781    
        5.739       5.705       5.667       5.602       5.443       5.223       4.999       4.818       4.616       4.230    
        3.627       3.021       2.438       1.854       1.335      0.8776      0.5628      0.2941      0.1209       0.000    
  18    10.00       9.964       9.909       9.816       9.677       9.580       9.515       9.428       9.329       9.182    
        8.989       8.821       8.644       8.418       8.193       7.955       7.641       7.196       6.858       6.631    
        6.423       6.259       6.129       5.952       5.817       5.777       5.768       5.768       5.750       5.722    
        5.701       5.678       5.634       5.522       5.356       5.170       4.984       4.822       4.540       4.021    
        3.404       2.758       2.133       1.653       1.239      0.8226      0.4834      0.2433      0.1166       0.000    
  19    10.00       9.955       9.894       9.760       9.621       9.563       9.492       9.384       9.261       9.103    
        8.927       8.768       8.511       8.167       7.901       7.657       7.278       6.876       6.650       6.477    
        6.262       6.063       5.921       5.785       5.721       5.708       5.705       5.688       5.662       5.656    
        5.648       5.630       5.565       5.458       5.320       5.142       4.974       4.741       4.256       3.715    
        3.216       2.546       1.951       1.570       1.158      0.7423      0.4365      0.2478      0.1269       0.000    
  20    10.00       9.945       9.843       9.704       9.603       9.541       9.463       9.347       9.210       9.066    
        8.885       8.643       8.258       7.918       7.682       7.381       7.007       6.788       6.583       6.342    
        6.107       5.929       5.782       5.687       5.640       5.617       5.589       5.583       5.570       5.579    
        5.582       5.567       5.499       5.402       5.261       5.108       4.898       4.472       3.946       3.513    
        2.969       2.351       1.905       1.536       1.120      0.6590      0.3815      0.2580      0.1329       0.000    
  21    10.00       9.909       9.799       9.684       9.584       9.518       9.434       9.298       9.162       9.025    
        8.782       8.413       8.021       7.766       7.502       7.187       6.910       6.704       6.456       6.203    
        5.979       5.805       5.676       5.576       5.510       5.461       5.444       5.454       5.458       5.476    
        5.496       5.471       5.404       5.314       5.174       5.005       4.677       4.227       3.811       3.285    
        2.769       2.280       1.903       1.530      0.9445      0.5340      0.3863      0.2915      0.1398       0.000    
  22    10.00       9.885       9.753       9.650       9.571       9.492       9.372       9.246       9.125       8.936    
        8.625       8.207       7.897       7.667       7.372       7.049       6.785       6.567       6.342       6.103    
        5.880       5.696       5.524       5.370       5.284       5.264       5.282       5.297       5.335       5.360    
        5.383       5.356       5.301       5.208       5.069       4.902       4.567       4.135       3.590       3.080    
        2.706       2.315       1.862       1.235      0.7377      0.5327      0.4050      0.2697      9.9798E-02   0.000    
  23    10.00       9.851       9.723       9.641       9.558       9.439       9.308       9.214       9.061       8.825    
        8.461       8.105       7.882       7.595       7.212       6.892       6.685       6.508       6.298       6.041    
        5.807       5.591       5.344       5.055       4.844       4.888       5.024       5.113       5.194       5.249    
        5.272       5.259       5.210       5.123       4.993       4.805       4.467       3.933       3.386       3.026    
        2.681       2.189       1.536      0.9972      0.7264      0.5435      0.3889      0.2295      9.1361E-02   0.000    
  24    10.00       9.828       9.735       9.637       9.518       9.394       9.294       9.189       9.042       8.730    
        8.389       8.126       7.874       7.491       7.072       6.842       6.668       6.494       6.255       6.013    
        5.805       5.532       5.136       4.589       3.921       4.192       4.598       4.882       5.050       5.137    
        5.181       5.175       5.139       5.043       4.897       4.660       4.231       3.724       3.314       2.940    
        2.516       1.965       1.380      0.9677      0.7282      0.5298      0.3550      0.2488      0.1222       0.000    
  25    10.00       9.848       9.752       9.629       9.505       9.391       9.291       9.195       8.975       8.672    
        8.409       8.143       7.814       7.394       7.083       6.877       6.679       6.470       6.253       6.044    
        5.804       5.543       4.978       3.936       2.084       3.461       4.206       4.649       4.924       5.069    
        5.122       5.122       5.077       4.944       4.743       4.416       4.010       3.611       3.260       2.821    
        2.309       1.782       1.289      0.9598      0.7552      0.5508      0.3743      0.2607      0.1623       0.000    
  26    10.00       9.868       9.776       9.645       9.512       9.409       9.303       9.161       8.944       8.733    
        8.487       8.123       7.720       7.380       7.145       6.944       6.714       6.457       6.246       6.072    
        5.872       5.614       5.126       4.358       3.509       3.863       4.312       4.643       4.898       5.054    
        5.098       5.086       5.007       4.846       4.622       4.311       3.861       3.481       3.150       2.615    
        2.035       1.571       1.277       1.048      0.8145      0.5948      0.4081      0.2833      0.1655       0.000    
  27    10.00       9.895       9.781       9.664       9.549       9.427       9.308       9.165       8.986       8.794    
        8.484       8.075       7.722       7.440       7.242       7.010       6.712       6.443       6.278       6.135    
        5.979       5.740       5.369       4.915       4.455       4.422       4.592       4.803       4.991       5.083    
        5.095       5.067       4.973       4.796       4.533       4.109       3.683       3.367       2.861       2.295    
        1.842       1.544       1.321       1.121      0.8906      0.6493      0.4434      0.3118      0.1968       0.000    
  28    10.00       9.902       9.808       9.703       9.590       9.461       9.330       9.192       9.036       8.812    
        8.450       8.095       7.787       7.510       7.300       7.074       6.829       6.570       6.336       6.187    
        6.062       5.891       5.652       5.321       5.038       4.870       4.903       5.037       5.102       5.127    
        5.109       5.059       4.941       4.713       4.362       3.919       3.548       3.100       2.569       2.165    
        1.840       1.587       1.369       1.160      0.9359      0.7087      0.5032      0.3552      0.2030       0.000    
  29    10.00       9.909       9.818       9.734       9.624       9.508       9.380       9.239       9.068       8.769    
        8.432       8.132       7.840       7.606       7.367       7.127       6.905       6.696       6.471       6.274    
        6.140       6.008       5.849       5.651       5.382       5.248       5.231       5.236       5.239       5.200    
        5.137       5.034       4.889       4.594       4.159       3.762       3.381       2.909       2.482       2.184    
        1.920       1.642       1.395       1.195      0.9930      0.7498      0.5319      0.3713      0.2059       0.000    
  30    10.00       9.921       9.845       9.773       9.674       9.560       9.445       9.284       9.056       8.784    
        8.444       8.119       7.880       7.648       7.422       7.204       7.025       6.831       6.611       6.403    
        6.236       6.125       5.989       5.855       5.707       5.587       5.544       5.450       5.388       5.288    
        5.153       4.975       4.764       4.448       4.100       3.722       3.313       2.868       2.542       2.270    
        1.956       1.676       1.461       1.233      0.9919      0.7764      0.5672      0.3945      0.2217       0.000    
  31    10.00       9.938       9.875       9.806       9.733       9.641       9.511       9.313       9.053       8.766    
        8.441       8.150       7.932       7.705       7.495       7.295       7.116       6.965       6.745       6.535    
        6.382       6.263       6.156       6.053       5.977       5.866       5.745       5.640       5.507       5.350    
        5.135       4.898       4.676       4.412       4.077       3.675       3.257       2.889       2.657       2.398    
        2.048       1.741       1.495       1.263       1.039      0.8173      0.6014      0.4153      0.2151       0.000    
  32    10.00       9.946       9.902       9.842       9.773       9.686       9.548       9.321       9.086       8.815    
        8.480       8.210       8.005       7.772       7.551       7.388       7.231       7.052       6.876       6.669    
        6.512       6.385       6.291       6.204       6.116       6.025       5.884       5.751       5.587       5.371    
        5.117       4.873       4.635       4.378       4.047       3.683       3.354       3.039       2.772       2.476    
        2.154       1.849       1.589       1.322       1.078      0.8895      0.6637      0.4079      0.1822       0.000    
  33    10.00       9.955       9.920       9.869       9.799       9.707       9.529       9.306       9.117       8.875    
        8.568       8.313       8.072       7.813       7.619       7.480       7.344       7.161       6.966       6.791    
        6.616       6.488       6.373       6.276       6.197       6.107       5.965       5.786       5.614       5.404    
        5.147       4.920       4.667       4.346       4.033       3.708       3.440       3.191       2.890       2.563    
        2.283       1.994       1.709       1.432       1.174      0.9641      0.7109      0.4104      0.1784       0.000    
  34    10.00       9.963       9.936       9.894       9.803       9.669       9.506       9.351       9.155       8.917    
        8.657       8.381       8.113       7.861       7.700       7.586       7.440       7.266       7.048       6.880    
        6.725       6.566       6.442       6.344       6.265       6.156       5.993       5.822       5.634       5.392    
        5.165       4.974       4.729       4.415       4.099       3.796       3.542       3.296       2.983       2.685    
        2.434       2.155       1.843       1.567       1.305       1.064      0.7612      0.4622      0.2424       0.000    
  35    10.00       9.969       9.937       9.876       9.766       9.636       9.519       9.386       9.229       8.973    
        8.691       8.418       8.149       7.940       7.795       7.675       7.521       7.337       7.128       6.929    
        6.780       6.633       6.507       6.413       6.326       6.214       6.033       5.828       5.608       5.357    
        5.183       4.989       4.735       4.505       4.238       3.916       3.632       3.423       3.125       2.805    
        2.562       2.276       1.963       1.692       1.419       1.154      0.8729      0.5786      0.2862       0.000    
  36    10.00       9.962       9.911       9.846       9.744       9.623       9.526       9.414       9.245       9.001    
        8.697       8.410       8.219       8.056       7.913       7.761       7.581       7.397       7.180       6.930    
        6.767       6.656       6.544       6.465       6.375       6.236       6.037       5.811       5.543       5.310    
        5.157       4.998       4.776       4.551       4.326       4.038       3.752       3.528       3.261       2.911    
        2.644       2.325       2.012       1.805       1.540       1.245      0.9630      0.6554      0.3207       0.000    
  37    10.00       9.943       9.889       9.824       9.725       9.620       9.511       9.404       9.251       8.970    
        8.656       8.435       8.321       8.166       7.990       7.840       7.624       7.399       7.133       6.883    
        6.765       6.672       6.565       6.480       6.378       6.210       6.009       5.720       5.472       5.312    
        5.173       4.999       4.779       4.600       4.370       4.097       3.873       3.656       3.356       2.972    
        2.621       2.322       2.104       1.888       1.623       1.343       1.061      0.7229      0.3969       0.000    
  38    10.00       9.936       9.867       9.799       9.713       9.614       9.500       9.385       9.212       8.949    
        8.714       8.538       8.392       8.253       8.066       7.831       7.592       7.338       7.044       6.870    
        6.774       6.656       6.551       6.478       6.365       6.173       5.879       5.606       5.469       5.345    
        5.197       5.012       4.811       4.633       4.407       4.157       3.973       3.752       3.369       2.946    
        2.641       2.391       2.175       1.952       1.717       1.433       1.152      0.8360      0.4131       0.000    
  39    10.00       9.918       9.851       9.791       9.708       9.597       9.477       9.360       9.198       8.984    
        8.800       8.665       8.502       8.315       8.056       7.766       7.499       7.207       6.995       6.877    
        6.742       6.606       6.526       6.457       6.349       6.097       5.796       5.623       5.496       5.366    
        5.201       5.025       4.830       4.650       4.479       4.273       4.030       3.763       3.386       2.991    
        2.669       2.410       2.240       2.053       1.789       1.508       1.223      0.8700      0.4077       0.000    
  40    10.00       9.910       9.846       9.785       9.701       9.587       9.471       9.355       9.211       9.034    
        8.882       8.765       8.572       8.289       7.969       7.680       7.397       7.145       6.986       6.847    
        6.692       6.572       6.501       6.418       6.275       6.052       5.842       5.666       5.522       5.388    
        5.226       5.035       4.850       4.699       4.548       4.339       4.059       3.780       3.396       2.972    
        2.670       2.466       2.278       2.118       1.841       1.533       1.272      0.8724      0.4062       0.000    
  41    10.00       9.918       9.845       9.772       9.682       9.593       9.496       9.389       9.247       9.086    
        8.942       8.804       8.561       8.230       7.900       7.629       7.351       7.108       6.954       6.805    
        6.650       6.543       6.467       6.368       6.219       6.048       5.905       5.733       5.553       5.395    
        5.239       5.066       4.888       4.756       4.595       4.387       4.107       3.721       3.280       2.953    
        2.734       2.536       2.342       2.120       1.831       1.536       1.312      0.9293      0.4214       0.000    
  42    10.00       9.919       9.836       9.772       9.706       9.624       9.521       9.399       9.279       9.156    
        8.977       8.744       8.465       8.150       7.844       7.596       7.325       7.086       6.922       6.753    
        6.609       6.515       6.431       6.340       6.203       6.082       5.960       5.766       5.564       5.422    
        5.293       5.103       4.912       4.784       4.635       4.413       4.068       3.612       3.208       2.965    
        2.800       2.623       2.376       2.080       1.803       1.572       1.340      0.9801      0.4836       0.000    
  43    10.00       9.912       9.843       9.788       9.735       9.657       9.556       9.441       9.309       9.123    
        8.896       8.658       8.396       8.068       7.793       7.563       7.320       7.080       6.872       6.716    
        6.584       6.489       6.417       6.342       6.224       6.098       5.974       5.774       5.598       5.492    
        5.335       5.130       4.945       4.813       4.639       4.351       3.953       3.521       3.226       3.040    
        2.864       2.660       2.357       2.054       1.808       1.586       1.386      0.9939      0.4542       0.000    
  44    10.00       9.911       9.851       9.802       9.740       9.681       9.598       9.447       9.254       9.041    
        8.851       8.610       8.295       8.021       7.800       7.537       7.270       7.019       6.813       6.675    
        6.578       6.496       6.421       6.343       6.241       6.112       5.946       5.779       5.660       5.533    
        5.392       5.213       5.002       4.801       4.588       4.266       3.848       3.492       3.264       3.084    
        2.907       2.665       2.372       2.109       1.847       1.608       1.364      0.8973      0.4127       0.000    
  45    10.00       9.921       9.865       9.802       9.741       9.690       9.557       9.379       9.184       9.002    
        8.845       8.525       8.197       7.998       7.762       7.472       7.182       6.950       6.782       6.671    
        6.596       6.518       6.436       6.343       6.230       6.104       5.963       5.834       5.729       5.598    
        5.434       5.249       5.031       4.777       4.523       4.176       3.783       3.503       3.330       3.144    
        2.908       2.631       2.380       2.141       1.908       1.670       1.274      0.7975      0.4013       0.000    
  46    10.00       9.937       9.877       9.803       9.733       9.634       9.489       9.355       9.192       8.996    
        8.738       8.434       8.171       7.918       7.667       7.387       7.118       6.946       6.808       6.700    
        6.625       6.549       6.446       6.330       6.220       6.113       6.002       5.884       5.777       5.662    
        5.514       5.319       5.071       4.770       4.407       4.047       3.756       3.558       3.377       3.183    
        2.903       2.609       2.358       2.169       1.947       1.637       1.186      0.7618      0.3756       0.000    
  47    10.00       9.948       9.892       9.818       9.700       9.569       9.446       9.340       9.191       8.934    
        8.625       8.346       8.118       7.907       7.640       7.334       7.097       6.933       6.823       6.734    
        6.652       6.563       6.455       6.333       6.226       6.141       6.048       5.932       5.809       5.696    
        5.568       5.404       5.076       4.654       4.299       4.040       3.796       3.625       3.465       3.197    
        2.857       2.545       2.318       2.187       1.941       1.562       1.122      0.7349      0.3713       0.000    
  48    10.00       9.954       9.896       9.787       9.665       9.552       9.428       9.321       9.170       8.881    
        8.543       8.310       8.123       7.865       7.554       7.278       7.099       6.935       6.825       6.755    
        6.672       6.566       6.450       6.338       6.249       6.182       6.099       5.970       5.828       5.706    
        5.571       5.374       5.033       4.683       4.366       4.079       3.862       3.687       3.482       3.142    
        2.775       2.535       2.355       2.123       1.800       1.464       1.086      0.7403      0.3919       0.000    
  49    10.00       9.952       9.864       9.759       9.667       9.546       9.425       9.312       9.122       8.816    
        8.514       8.291       8.057       7.796       7.561       7.305       7.056       6.903       6.836       6.771    
        6.692       6.570       6.435       6.338       6.270       6.220       6.125       5.976       5.827       5.716    
        5.570       5.311       5.010       4.762       4.497       4.181       3.899       3.684       3.442       3.078    
        2.782       2.571       2.322       1.988       1.702       1.399       1.069      0.7525      0.3832       0.000    
  50    10.00       9.939       9.843       9.746       9.673       9.560       9.426       9.282       9.077       8.835    
        8.529       8.230       7.987       7.778       7.590       7.302       7.019       6.903       6.844       6.781    
        6.706       6.569       6.424       6.336       6.282       6.236       6.130       5.969       5.827       5.714    
        5.555       5.283       5.051       4.838       4.551       4.237       3.952       3.666       3.318       2.995    
        2.839       2.617       2.253       1.917       1.677       1.388       1.101      0.7351      0.3019       0.000    

 HEAD WILL BE SAVED ON UNIT   51 AT END OF TIME STEP  71, STRESS PERIOD    2

 DRAWDOWN WILL BE SAVED ON UNIT   52 AT END OF TIME STEP  71, STRESS PERIOD    2
1
  VOLUMETRIC BUDGET FOR ENTIRE MODEL AT END OF TIME STEP 71 IN STRESS PERIOD   2
  ------------------------------------------------------------------------------

     CUMULATIVE VOLUMES      L**3       RATES FOR THIS TIME STEP      L**3/T
     ------------------                 ------------------------

           IN:                                      IN:
           ---                                      ---
             STORAGE =       33656.3789               STORAGE =         418.8828
       CONSTANT HEAD =       40637.6289         CONSTANT HEAD =         615.8682
               WELLS =           0.0000                 WELLS =           0.0000

            TOTAL IN =       74294.0078              TOTAL IN =        1034.7510

          OUT:                                     OUT:
          ----                                     ----
             STORAGE =       9.3745E-03               STORAGE =           0.0000
       CONSTANT HEAD =       38793.9766         CONSTANT HEAD =         534.7513
               WELLS =       35500.0000                 WELLS =         500.0000

           TOTAL OUT =       74293.9844             TOTAL OUT =        1034.7512

            IN - OUT =       2.3438E-02              IN - OUT =      -2.4414E-04

 PERCENT DISCREPANCY =           0.00     PERCENT DISCREPANCY =           0.00






          TIME SUMMARY AT END OF TIME STEP  71 IN STRESS PERIOD    2
                    SECONDS     MINUTES      HOURS       DAYS        YEARS
                    -----------------------------------------------------------
   TIME STEP LENGTH  86400.      1440.0      24.000      1.0000     2.73785E-03
 STRESS PERIOD TIME 6.13440E+06 1.02240E+05  1704.0      71.000     0.19439    
         TOTAL TIME 6.22080E+06 1.03680E+05  1728.0      72.000     0.19713    
1
 
 SOLVING FOR HEAD 

 OUTPUT CONTROL FOR STRESS PERIOD    2   TIME STEP  72
    SAVE HEAD FOR ALL LAYERS
    SAVE DRAWDOWN FOR ALL LAYERS
    SAVE BUDGET
    PRINT HEAD FOR ALL LAYERS
    PRINT BUDGET
 UBDSV1 SAVING "         STORAGE" ON UNIT  53 AT TIME STEP 72, STRESS PERIOD   2
 UBDSV2 SAVING "   CONSTANT HEAD" ON UNIT  53 AT TIME STEP 72, STRESS PERIOD   2
 UBDSV1 SAVING "FLOW RIGHT FACE " ON UNIT  53 AT TIME STEP 72, STRESS PERIOD   2
 UBDSV1 SAVING "FLOW FRONT FACE " ON UNIT  53 AT TIME STEP 72, STRESS PERIOD   2
1
              HEAD IN LAYER   1 AT END OF TIME STEP  72 IN STRESS PERIOD    2
  ---------------------------------------------------------------------------

            1           2           3           4           5           6           7           8           9          10
           11          12          13          14          15          16          17          18          19          20
           21          22          23          24          25          26          27          28          29          30
           31          32          33          34          35          36          37          38          39          40
           41          42          43          44          45          46          47          48          49          50
 ........................................................................................................................
   1    10.00       9.953       9.890       9.826       9.774       9.709       9.646       9.580       9.491       9.419    
        9.376       9.333       9.285       9.239       9.163       9.080       8.990       8.920       8.888       8.854    
        8.811       8.775       8.738       8.692       8.627       8.516       8.382       8.252       8.104       7.956    
        7.747       7.414       7.023       6.610       6.148       5.722       5.360       5.025       4.568       4.072    
        3.650       3.233       2.659       2.114       1.733       1.350       1.030      0.8230      0.5458       0.000    
   2    10.00       9.953       9.896       9.832       9.776       9.717       9.646       9.560       9.474       9.418    
        9.380       9.341       9.305       9.246       9.160       9.074       8.992       8.923       8.889       8.850    
        8.806       8.778       8.749       8.700       8.626       8.519       8.384       8.249       8.110       7.962    
        7.736       7.393       6.980       6.514       6.048       5.636       5.313       4.985       4.521       4.055    
        3.629       3.129       2.611       2.180       1.802       1.446       1.080      0.7815      0.4173       0.000    
   3    10.00       9.948       9.894       9.836       9.779       9.710       9.623       9.540       9.486       9.435    
        9.390       9.357       9.321       9.266       9.179       9.072       8.985       8.929       8.886       8.846    
        8.810       8.780       8.750       8.688       8.609       8.501       8.372       8.270       8.122       7.948    
        7.656       7.256       6.814       6.361       5.933       5.553       5.265       4.926       4.423       3.970    
        3.616       3.162       2.686       2.273       1.881       1.522       1.090      0.6705      0.2949       0.000    
   4    10.00       9.953       9.897       9.833       9.763       9.684       9.600       9.539       9.493       9.445    
        9.406       9.378       9.338       9.278       9.198       9.082       8.985       8.932       8.886       8.849    
        8.807       8.772       8.734       8.667       8.586       8.481       8.356       8.240       8.125       7.906    
        7.526       7.034       6.561       6.214       5.898       5.531       5.162       4.731       4.306       3.978    
        3.664       3.264       2.789       2.382       1.971       1.537       1.039      0.5952      0.2773       0.000    
   5    10.00       9.949       9.890       9.818       9.745       9.671       9.598       9.546       9.498       9.457    
        9.423       9.393       9.346       9.276       9.183       9.077       8.994       8.936       8.889       8.836    
        8.788       8.751       8.703       8.636       8.560       8.438       8.313       8.214       8.099       7.816    
        7.313       6.770       6.380       6.117       5.832       5.463       5.043       4.618       4.320       4.043    
        3.761       3.350       2.856       2.502       2.085       1.517      0.9455      0.5493      0.2764       0.000    
   6    10.00       9.937       9.867       9.810       9.741       9.665       9.603       9.556       9.507       9.469    
        9.438       9.401       9.340       9.259       9.179       9.090       9.001       8.929       8.868       8.807    
        8.765       8.725       8.681       8.609       8.496       8.380       8.287       8.179       7.984       7.574    
        7.012       6.518       6.221       6.025       5.796       5.390       4.935       4.603       4.384       4.144    
        3.873       3.503       3.015       2.575       2.059       1.451      0.8479      0.4831      0.2700       0.000    
   7    10.00       9.919       9.853       9.798       9.732       9.677       9.618       9.569       9.527       9.487    
        9.446       9.392       9.319       9.240       9.167       9.094       8.995       8.896       8.831       8.782    
        8.740       8.697       8.651       8.554       8.438       8.345       8.243       8.067       7.732       7.209    
        6.678       6.295       6.113       5.964       5.670       5.267       4.970       4.685       4.451       4.287    
        4.015       3.633       3.112       2.543       1.907       1.209      0.7107      0.4905      0.2484       0.000    
   8    10.00       9.913       9.853       9.793       9.734       9.686       9.635       9.588       9.547       9.508    
        9.449       9.371       9.294       9.224       9.156       9.065       8.946       8.854       8.804       8.758    
        8.708       8.672       8.595       8.490       8.387       8.277       8.081       7.801       7.340       6.887    
        6.496       6.198       6.063       5.880       5.546       5.238       4.993       4.785       4.601       4.409    
        4.128       3.659       3.057       2.409       1.684       1.092      0.7521      0.4812      0.2217       0.000    
   9    10.00       9.917       9.849       9.790       9.748       9.707       9.658       9.611       9.565       9.520    
        9.444       9.348       9.268       9.197       9.115       9.013       8.906       8.824       8.773       8.724    
        8.679       8.620       8.513       8.415       8.307       8.151       7.866       7.443       6.988       6.665    
        6.359       6.146       5.995       5.751       5.446       5.210       5.037       4.882       4.726       4.517    
        4.170       3.682       3.043       2.319       1.652       1.130      0.7673      0.4774      0.2367       0.000    
  10    10.00       9.916       9.846       9.798       9.760       9.720       9.678       9.637       9.582       9.511    
        9.418       9.321       9.243       9.165       9.078       8.960       8.852       8.787       8.742       8.693    
        8.647       8.548       8.433       8.325       8.174       7.937       7.507       7.051       6.698       6.456    
        6.277       6.105       5.900       5.650       5.395       5.221       5.096       4.968       4.794       4.552    
        4.179       3.644       2.962       2.316       1.789       1.295      0.8219      0.5071      0.2673       0.000    
  11    10.00       9.905       9.851       9.811       9.773       9.738       9.699       9.644       9.567       9.486    
        9.393       9.299       9.223       9.119       8.999       8.896       8.819       8.758       8.714       8.659    
        8.575       8.447       8.281       8.120       7.853       7.499       7.120       6.822       6.541       6.371    
        6.221       5.993       5.763       5.579       5.413       5.289       5.165       5.001       4.795       4.511    
        4.162       3.690       3.001       2.413       1.946       1.472      0.9478      0.5029      0.2019       0.000    
  12    10.00       9.913       9.860       9.817       9.785       9.749       9.706       9.631       9.539       9.456    
        9.368       9.273       9.171       9.045       8.947       8.858       8.777       8.727       8.668       8.584    
        8.419       8.199       7.965       7.723       7.393       7.124       6.929       6.622       6.394       6.264    
        6.105       5.892       5.714       5.562       5.457       5.345       5.198       5.013       4.768       4.471    
        4.127       3.667       3.036       2.511       2.089       1.579      0.9983      0.4764      0.1584       0.000    
  13    10.00       9.932       9.883       9.837       9.796       9.753       9.690       9.598       9.502       9.420    
        9.326       9.231       9.124       8.993       8.880       8.792       8.735       8.669       8.585       8.384    
        8.081       7.814       7.562       7.261       7.004       6.886       6.644       6.367       6.254       6.147    
        5.979       5.799       5.673       5.574       5.489       5.386       5.219       4.989       4.749       4.443    
        4.102       3.635       2.985       2.495       2.104       1.545      0.9302      0.4310      0.1245       0.000    
  14    10.00       9.950       9.905       9.857       9.807       9.742       9.650       9.552       9.467       9.373    
        9.279       9.192       9.063       8.917       8.814       8.743       8.649       8.547       8.346       7.991    
        7.669       7.432       7.101       6.857       6.743       6.611       6.362       6.204       6.089       5.987    
        5.847       5.741       5.669       5.592       5.505       5.401       5.213       4.961       4.704       4.394    
        4.029       3.464       2.852       2.456       1.977       1.440      0.9167      0.3935      0.1013       0.000    
  15    10.00       9.960       9.915       9.866       9.809       9.710       9.597       9.511       9.426       9.335    
        9.264       9.161       8.991       8.832       8.737       8.611       8.483       8.353       8.013       7.598    
        7.333       6.998       6.699       6.609       6.542       6.367       6.169       6.015       5.934       5.861    
        5.781       5.724       5.672       5.608       5.517       5.389       5.172       4.886       4.616       4.329    
        3.935       3.385       2.857       2.325       1.745       1.264      0.7880      0.3466      0.1040       0.000    
  16    10.00       9.971       9.926       9.868       9.778       9.657       9.559       9.489       9.412       9.319    
        9.223       9.074       8.878       8.725       8.586       8.437       8.350       8.086       7.593       7.212    
        6.947       6.620       6.512       6.459       6.331       6.111       5.952       5.883       5.862       5.815    
        5.759       5.714       5.672       5.603       5.494       5.334       5.073       4.814       4.602       4.296    
        3.847       3.254       2.646       2.053       1.559       1.084      0.6711      0.3288      0.1109       0.000    
  17    10.00       9.970       9.923       9.846       9.735       9.613       9.531       9.467       9.380       9.275    
        9.115       8.926       8.749       8.581       8.410       8.266       8.050       7.607       7.150       6.889    
        6.631       6.434       6.348       6.224       6.024       5.862       5.822       5.818       5.808       5.769    
        5.727       5.694       5.657       5.592       5.433       5.214       4.990       4.810       4.609       4.223    
        3.622       3.017       2.435       1.853       1.334      0.8768      0.5623      0.2939      0.1208       0.000    
  18    10.00       9.964       9.908       9.815       9.676       9.578       9.513       9.425       9.325       9.178    
        8.984       8.816       8.638       8.412       8.186       7.947       7.632       7.186       6.847       6.620    
        6.411       6.247       6.117       5.940       5.805       5.765       5.756       5.756       5.738       5.711    
        5.690       5.666       5.623       5.511       5.346       5.160       4.975       4.814       4.533       4.015    
        3.400       2.755       2.130       1.651       1.238      0.8219      0.4830      0.2431      0.1165       0.000    
  19    10.00       9.955       9.894       9.759       9.619       9.561       9.489       9.381       9.257       9.098    
        8.922       8.763       8.504       8.160       7.892       7.648       7.268       6.865       6.638       6.465    
        6.250       6.051       5.908       5.773       5.708       5.696       5.693       5.676       5.650       5.644    
        5.637       5.618       5.554       5.447       5.310       5.132       4.965       4.733       4.249       3.710    
        3.212       2.543       1.949       1.568       1.157      0.7416      0.4362      0.2476      0.1268       0.000    
  20    10.00       9.945       9.842       9.703       9.601       9.539       9.460       9.344       9.206       9.062    
        8.880       8.637       8.250       7.909       7.672       7.371       6.996       6.777       6.571       6.330    
        6.095       5.917       5.769       5.674       5.627       5.604       5.576       5.570       5.558       5.566    
        5.570       5.555       5.488       5.391       5.251       5.098       4.889       4.464       3.939       3.508    
        2.965       2.348       1.903       1.534       1.119      0.6584      0.3812      0.2578      0.1328       0.000    
  21    10.00       9.909       9.798       9.682       9.582       9.516       9.431       9.295       9.157       9.021    
        8.776       8.405       8.013       7.757       7.492       7.176       6.899       6.692       6.445       6.191    
        5.966       5.792       5.663       5.564       5.497       5.448       5.432       5.441       5.445       5.463    
        5.484       5.459       5.392       5.302       5.163       4.995       4.668       4.220       3.805       3.280    
        2.765       2.278       1.901       1.528      0.9437      0.5336      0.3860      0.2913      0.1397       0.000    
  22    10.00       9.885       9.752       9.648       9.569       9.489       9.369       9.242       9.121       8.931    
        8.618       8.199       7.888       7.657       7.362       7.038       6.774       6.555       6.330       6.091    
        5.868       5.684       5.511       5.357       5.271       5.251       5.269       5.284       5.322       5.347    
        5.370       5.343       5.289       5.196       5.058       4.891       4.558       4.128       3.585       3.076    
        2.702       2.313       1.860       1.234      0.7371      0.5323      0.4047      0.2696      9.9728E-02   0.000    
  23    10.00       9.851       9.721       9.639       9.555       9.436       9.305       9.210       9.057       8.820    
        8.454       8.097       7.873       7.585       7.201       6.881       6.674       6.496       6.286       6.029    
        5.794       5.579       5.332       5.042       4.831       4.874       5.011       5.100       5.180       5.235    
        5.258       5.246       5.197       5.111       4.982       4.795       4.458       3.927       3.381       3.022    
        2.678       2.186       1.535      0.9964      0.7259      0.5431      0.3886      0.2294      9.1302E-02   0.000    
  24    10.00       9.827       9.734       9.635       9.516       9.391       9.291       9.185       9.038       8.724    
        8.382       8.118       7.865       7.481       7.061       6.831       6.656       6.482       6.243       6.001    
        5.792       5.519       5.123       4.575       3.907       4.179       4.585       4.868       5.036       5.123    
        5.167       5.162       5.126       5.031       4.886       4.650       4.223       3.718       3.309       2.936    
        2.513       1.963       1.379      0.9670      0.7277      0.5295      0.3548      0.2487      0.1221       0.000    
  25    10.00       9.847       9.751       9.627       9.502       9.388       9.288       9.191       8.970       8.666    
        8.402       8.135       7.805       7.383       7.072       6.866       6.668       6.458       6.240       6.032    
        5.791       5.530       4.965       3.923       2.070       3.447       4.192       4.635       4.911       5.055    
        5.109       5.109       5.064       4.932       4.732       4.407       4.002       3.605       3.255       2.818    
        2.306       1.781       1.288      0.9591      0.7547      0.5505      0.3740      0.2605      0.1622       0.000    
  26    10.00       9.867       9.774       9.644       9.510       9.406       9.299       9.157       8.939       8.727    
        8.480       8.115       7.711       7.370       7.135       6.933       6.703       6.445       6.234       6.060    
        5.860       5.601       5.112       4.345       3.495       3.849       4.298       4.629       4.883       5.040    
        5.084       5.073       4.994       4.835       4.612       4.302       3.854       3.475       3.145       2.612    
        2.033       1.570       1.276       1.047      0.8140      0.5944      0.4078      0.2831      0.1654       0.000    
  27    10.00       9.894       9.780       9.662       9.547       9.424       9.305       9.161       8.981       8.788    
        8.477       8.067       7.713       7.430       7.231       7.000       6.700       6.432       6.266       6.123    
        5.966       5.727       5.356       4.902       4.441       4.408       4.578       4.789       4.977       5.069    
        5.081       5.054       4.960       4.784       4.523       4.101       3.677       3.361       2.857       2.293    
        1.840       1.542       1.320       1.120      0.8900      0.6489      0.4431      0.3117      0.1966       0.000    
  28    10.00       9.902       9.808       9.701       9.588       9.459       9.327       9.188       9.032       8.806    
        8.444       8.087       7.778       7.501       7.290       7.063       6.818       6.558       6.324       6.175    
        6.050       5.879       5.639       5.308       5.024       4.857       4.889       5.023       5.088       5.114    
        5.096       5.046       4.928       4.702       4.353       3.912       3.542       3.095       2.566       2.163    
        1.839       1.585       1.368       1.160      0.9354      0.7083      0.5029      0.3550      0.2029       0.000    
  29    10.00       9.909       9.817       9.733       9.622       9.506       9.378       9.235       9.064       8.763    
        8.426       8.124       7.831       7.597       7.357       7.117       6.894       6.685       6.459       6.262    
        6.127       5.996       5.837       5.638       5.369       5.235       5.217       5.222       5.225       5.187    
        5.124       5.022       4.878       4.585       4.152       3.756       3.376       2.906       2.480       2.183    
        1.919       1.641       1.394       1.194      0.9924      0.7494      0.5316      0.3711      0.2058       0.000    
  30    10.00       9.921       9.845       9.772       9.673       9.558       9.442       9.281       9.052       8.779    
        8.438       8.111       7.872       7.639       7.412       7.194       7.014       6.820       6.600       6.391    
        6.224       6.113       5.977       5.842       5.694       5.574       5.531       5.437       5.374       5.275    
        5.142       4.965       4.754       4.440       4.093       3.717       3.309       2.865       2.540       2.268    
        1.954       1.675       1.460       1.232      0.9914      0.7760      0.5669      0.3943      0.2216       0.000    
  31    10.00       9.937       9.875       9.805       9.732       9.639       9.509       9.310       9.049       8.761    
        8.434       8.142       7.924       7.696       7.486       7.286       7.106       6.954       6.734       6.524    
        6.371       6.251       6.144       6.041       5.965       5.854       5.733       5.628       5.495       5.339    
        5.124       4.889       4.668       4.405       4.071       3.671       3.253       2.886       2.654       2.396    
        2.047       1.740       1.494       1.263       1.039      0.8169      0.6011      0.4152      0.2150       0.000    
  32    10.00       9.946       9.901       9.841       9.772       9.684       9.546       9.318       9.082       8.810    
        8.473       8.203       7.997       7.764       7.542       7.378       7.222       7.042       6.865       6.658    
        6.501       6.374       6.279       6.193       6.104       6.014       5.872       5.739       5.576       5.360    
        5.108       4.865       4.628       4.372       4.042       3.679       3.351       3.036       2.770       2.475    
        2.152       1.848       1.588       1.322       1.077      0.8891      0.6635      0.4077      0.1821       0.000    
  33    10.00       9.955       9.920       9.869       9.798       9.706       9.527       9.304       9.113       8.870    
        8.563       8.307       8.065       7.805       7.610       7.472       7.335       7.151       6.956       6.780    
        6.605       6.477       6.363       6.266       6.186       6.096       5.954       5.776       5.605       5.396    
        5.139       4.913       4.661       4.341       4.029       3.704       3.437       3.188       2.888       2.562    
        2.282       1.993       1.708       1.432       1.174      0.9638      0.7107      0.4103      0.1784       0.000    
  34    10.00       9.962       9.936       9.893       9.802       9.667       9.504       9.349       9.152       8.913    
        8.652       8.375       8.107       7.854       7.692       7.578       7.432       7.257       7.039       6.870    
        6.715       6.556       6.432       6.334       6.255       6.145       5.984       5.813       5.625       5.384    
        5.159       4.968       4.724       4.411       4.096       3.793       3.539       3.294       2.982       2.684    
        2.433       2.155       1.842       1.566       1.305       1.063      0.7610      0.4621      0.2423       0.000    
  35    10.00       9.969       9.937       9.876       9.765       9.634       9.517       9.384       9.226       8.969    
        8.686       8.412       8.143       7.933       7.787       7.667       7.512       7.329       7.119       6.920    
        6.771       6.624       6.498       6.404       6.316       6.204       6.025       5.820       5.601       5.351    
        5.178       4.984       4.731       4.501       4.235       3.914       3.630       3.422       3.124       2.804    
        2.561       2.276       1.963       1.691       1.419       1.154      0.8727      0.5785      0.2862       0.000    
  36    10.00       9.962       9.911       9.845       9.743       9.622       9.525       9.412       9.242       8.998    
        8.692       8.405       8.213       8.050       7.907       7.754       7.573       7.390       7.172       6.922    
        6.759       6.648       6.536       6.457       6.367       6.228       6.030       5.804       5.538       5.305    
        5.153       4.994       4.772       4.548       4.324       4.036       3.750       3.526       3.259       2.910    
        2.643       2.324       2.012       1.804       1.539       1.245      0.9629      0.6553      0.3206       0.000    
  37    10.00       9.943       9.889       9.823       9.724       9.619       9.509       9.402       9.249       8.967    
        8.652       8.431       8.316       8.160       7.983       7.834       7.617       7.392       7.126       6.876    
        6.758       6.665       6.558       6.473       6.371       6.204       6.002       5.715       5.468       5.308    
        5.170       4.996       4.776       4.598       4.368       4.095       3.871       3.655       3.355       2.971    
        2.620       2.321       2.103       1.888       1.623       1.343       1.061      0.7227      0.3969       0.000    
  38    10.00       9.935       9.866       9.799       9.712       9.613       9.498       9.383       9.209       8.946    
        8.710       8.534       8.387       8.248       8.061       7.824       7.585       7.332       7.038       6.864    
        6.768       6.650       6.545       6.472       6.359       6.167       5.875       5.602       5.466       5.341    
        5.194       5.010       4.809       4.630       4.405       4.155       3.971       3.751       3.368       2.945    
        2.640       2.390       2.174       1.951       1.717       1.433       1.152      0.8358      0.4131       0.000    
  39    10.00       9.918       9.851       9.790       9.708       9.596       9.476       9.358       9.196       8.981    
        8.797       8.661       8.498       8.311       8.051       7.761       7.494       7.202       6.990       6.872    
        6.737       6.601       6.521       6.452       6.344       6.093       5.792       5.619       5.493       5.364    
        5.198       5.022       4.828       4.648       4.477       4.271       4.029       3.762       3.385       2.990    
        2.668       2.410       2.239       2.053       1.789       1.508       1.222      0.8699      0.4076       0.000    
  40    10.00       9.909       9.846       9.785       9.700       9.587       9.470       9.354       9.209       9.031    
        8.880       8.762       8.568       8.285       7.965       7.675       7.393       7.140       6.982       6.842    
        6.687       6.568       6.497       6.414       6.271       6.048       5.839       5.663       5.519       5.385    
        5.223       5.033       4.848       4.698       4.546       4.338       4.058       3.779       3.395       2.971    
        2.670       2.465       2.278       2.118       1.840       1.532       1.272      0.8722      0.4061       0.000    
  41    10.00       9.918       9.845       9.772       9.682       9.592       9.495       9.387       9.245       9.084    
        8.939       8.801       8.558       8.227       7.897       7.625       7.347       7.104       6.950       6.801    
        6.646       6.540       6.463       6.365       6.216       6.045       5.902       5.730       5.550       5.393    
        5.237       5.064       4.886       4.754       4.594       4.385       4.105       3.719       3.279       2.952    
        2.734       2.536       2.341       2.119       1.830       1.535       1.312      0.9291      0.4213       0.000    
  42    10.00       9.918       9.836       9.772       9.706       9.623       9.520       9.398       9.278       9.154    
        8.974       8.742       8.462       8.147       7.841       7.593       7.321       7.082       6.918       6.750    
        6.605       6.511       6.428       6.338       6.200       6.079       5.957       5.764       5.562       5.419    
        5.290       5.101       4.910       4.782       4.633       4.411       4.067       3.611       3.208       2.964    
        2.799       2.622       2.375       2.080       1.802       1.572       1.340      0.9799      0.4835       0.000    
  43    10.00       9.912       9.842       9.788       9.735       9.656       9.555       9.440       9.307       9.121    
        8.894       8.656       8.394       8.066       7.790       7.561       7.317       7.077       6.869       6.713    
        6.581       6.487       6.414       6.340       6.222       6.095       5.972       5.772       5.595       5.490    
        5.333       5.128       4.943       4.812       4.637       4.350       3.951       3.520       3.225       3.039    
        2.863       2.660       2.356       2.053       1.808       1.586       1.386      0.9937      0.4541       0.000    
  44    10.00       9.911       9.851       9.802       9.739       9.681       9.598       9.446       9.252       9.040    
        8.850       8.608       8.293       8.019       7.797       7.535       7.268       7.017       6.811       6.673    
        6.575       6.493       6.419       6.341       6.239       6.110       5.943       5.777       5.657       5.531    
        5.390       5.211       5.000       4.799       4.587       4.265       3.846       3.491       3.263       3.083    
        2.906       2.665       2.372       2.109       1.847       1.608       1.364      0.8971      0.4126       0.000    
  45    10.00       9.921       9.865       9.801       9.741       9.690       9.556       9.378       9.183       9.000    
        8.844       8.523       8.195       7.996       7.759       7.469       7.180       6.947       6.779       6.669    
        6.593       6.515       6.433       6.341       6.228       6.102       5.961       5.832       5.727       5.596    
        5.432       5.247       5.030       4.776       4.522       4.175       3.782       3.502       3.329       3.143    
        2.907       2.631       2.379       2.140       1.908       1.670       1.274      0.7973      0.4013       0.000    
  46    10.00       9.937       9.877       9.802       9.733       9.633       9.489       9.354       9.191       8.995    
        8.737       8.433       8.170       7.917       7.666       7.385       7.116       6.943       6.805       6.698    
        6.622       6.547       6.443       6.327       6.218       6.111       6.000       5.881       5.775       5.660    
        5.512       5.317       5.070       4.769       4.406       4.045       3.755       3.557       3.376       3.182    
        2.903       2.608       2.358       2.169       1.947       1.637       1.186      0.7616      0.3755       0.000    
  47    10.00       9.948       9.892       9.818       9.700       9.569       9.445       9.340       9.190       8.933    
        8.623       8.345       8.116       7.905       7.638       7.333       7.095       6.931       6.821       6.731    
        6.649       6.561       6.453       6.331       6.224       6.139       6.046       5.929       5.807       5.694    
        5.566       5.402       5.074       4.653       4.298       4.039       3.795       3.624       3.464       3.197    
        2.856       2.544       2.317       2.186       1.941       1.562       1.121      0.7348      0.3712       0.000    
  48    10.00       9.954       9.896       9.786       9.665       9.552       9.428       9.321       9.169       8.880    
        8.542       8.309       8.121       7.863       7.552       7.276       7.097       6.933       6.823       6.753    
        6.670       6.564       6.448       6.336       6.247       6.180       6.097       5.968       5.826       5.704    
        5.569       5.372       5.031       4.681       4.365       4.078       3.861       3.686       3.481       3.141    
        2.775       2.535       2.354       2.123       1.800       1.464       1.086      0.7402      0.3919       0.000    
  49    10.00       9.952       9.864       9.758       9.667       9.546       9.425       9.312       9.121       8.815    
        8.513       8.290       8.056       7.794       7.560       7.303       7.054       6.901       6.834       6.769    
        6.690       6.568       6.433       6.335       6.268       6.218       6.123       5.974       5.825       5.714    
        5.568       5.309       5.008       4.760       4.495       4.179       3.898       3.683       3.442       3.077    
        2.782       2.571       2.322       1.987       1.701       1.398       1.068      0.7524      0.3832       0.000    
  50    10.00       9.939       9.842       9.746       9.672       9.559       9.425       9.282       9.076       8.834    
        8.528       8.229       7.985       7.777       7.588       7.300       7.017       6.901       6.842       6.779    
        6.703       6.567       6.422       6.333       6.280       6.234       6.127       5.967       5.825       5.712    
        5.553       5.281       5.049       4.837       4.550       4.236       3.951       3.665       3.318       2.995    
        2.838       2.616       2.253       1.917       1.677       1.388       1.101      0.7350      0.3019       0.000    

 HEAD WILL BE SAVED ON UNIT   51 AT END OF TIME STEP  72, STRESS PERIOD    2

 DRAWDOWN WILL BE SAVED ON UNIT   52 AT END OF TIME STEP  72, STRESS PERIOD    2
1
  VOLUMETRIC BUDGET FOR ENTIRE MODEL AT END OF TIME STEP 72 IN STRESS PERIOD   2
  ------------------------------------------------------------------------------

     CUMULATIVE VOLUMES      L**3       RATES FOR THIS TIME STEP      L**3/T
     ------------------                 ------------------------

           IN:                                      IN:
           ---                                      ---
             STORAGE =       34073.2383               STORAGE =         416.8586
       CONSTANT HEAD =       41255.2734         CONSTANT HEAD =         617.6439
               WELLS =           0.0000                 WELLS =           0.0000

            TOTAL IN =       75328.5156              TOTAL IN =        1034.5026

          OUT:                                     OUT:
          ----                                     ----
             STORAGE =       9.3745E-03               STORAGE =           0.0000
       CONSTANT HEAD =       39328.4805         CONSTANT HEAD =         534.5028
               WELLS =       36000.0000                 WELLS =         500.0000

           TOTAL OUT =       75328.4922             TOTAL OUT =        1034.5028

            IN - OUT =       2.3438E-02              IN - OUT =      -2.4414E-04

 PERCENT DISCREPANCY =           0.00     PERCENT DISCREPANCY =           0.00






          TIME SUMMARY AT END OF TIME STEP  72 IN STRESS PERIOD    2
                    SECONDS     MINUTES      HOURS       DAYS        YEARS
                    -----------------------------------------------------------
   TIME STEP LENGTH  86400.      1440.0      24.000      1.0000     2.73785E-03
 STRESS PERIOD TIME 6.22080E+06 1.03680E+05  1728.0      72.000     0.19713    
         TOTAL TIME 6.30720E+06 1.05120E+05  1752.0      73.000     0.19986    
1
 
 SOLVING FOR HEAD 

 OUTPUT CONTROL FOR STRESS PERIOD    2   TIME STEP  73
    SAVE HEAD FOR ALL LAYERS
    SAVE DRAWDOWN FOR ALL LAYERS
    SAVE BUDGET
    PRINT HEAD FOR ALL LAYERS
    PRINT BUDGET
 UBDSV1 SAVING "         STORAGE" ON UNIT  53 AT TIME STEP 73, STRESS PERIOD   2
 UBDSV2 SAVING "   CONSTANT HEAD" ON UNIT  53 AT TIME STEP 73, STRESS PERIOD   2
 UBDSV1 SAVING "FLOW RIGHT FACE " ON UNIT  53 AT TIME STEP 73, STRESS PERIOD   2
 UBDSV1 SAVING "FLOW FRONT FACE " ON UNIT  53 AT TIME STEP 73, STRESS PERIOD   2
1
              HEAD IN LAYER   1 AT END OF TIME STEP  73 IN STRESS PERIOD    2
  ---------------------------------------------------------------------------

            1           2           3           4           5           6           7           8           9          10
           11          12          13          14          15          16          17          18          19          20
           21          22          23          24          25          26          27          28          29          30
           31          32          33          34          35          36          37          38          39          40
           41          42          43          44          45          46          47          48          49          50
 ........................................................................................................................
   1    10.00       9.953       9.889       9.826       9.773       9.708       9.645       9.579       9.490       9.417    
        9.374       9.331       9.283       9.236       9.161       9.078       8.988       8.917       8.885       8.851    
        8.808       8.772       8.734       8.688       8.624       8.512       8.378       8.248       8.100       7.952    
        7.743       7.410       7.019       6.606       6.144       5.718       5.357       5.022       4.565       4.069    
        3.647       3.231       2.657       2.112       1.731       1.349       1.029      0.8223      0.5454       0.000    
   2    10.00       9.953       9.896       9.832       9.775       9.716       9.645       9.558       9.473       9.417    
        9.378       9.339       9.303       9.244       9.157       9.072       8.989       8.920       8.886       8.846    
        8.803       8.775       8.745       8.696       8.622       8.516       8.380       8.245       8.106       7.958    
        7.732       7.389       6.976       6.510       6.044       5.633       5.310       4.981       4.518       4.052    
        3.626       3.126       2.608       2.178       1.800       1.445       1.079      0.7809      0.4170       0.000    
   3    10.00       9.948       9.893       9.835       9.778       9.709       9.621       9.539       9.484       9.433    
        9.388       9.355       9.319       9.263       9.176       9.070       8.982       8.925       8.883       8.843    
        8.807       8.777       8.747       8.685       8.605       8.497       8.368       8.266       8.118       7.944    
        7.651       7.251       6.810       6.357       5.929       5.549       5.261       4.922       4.420       3.967    
        3.613       3.159       2.684       2.271       1.879       1.521       1.089      0.6699      0.2947       0.000    
   4    10.00       9.952       9.896       9.833       9.762       9.683       9.599       9.537       9.491       9.443    
        9.404       9.376       9.336       9.276       9.196       9.079       8.982       8.929       8.883       8.845    
        8.804       8.768       8.730       8.664       8.582       8.477       8.352       8.236       8.121       7.902    
        7.521       7.030       6.557       6.210       5.893       5.526       5.158       4.727       4.302       3.974    
        3.661       3.261       2.786       2.380       1.970       1.536       1.038      0.5948      0.2771       0.000    
   5    10.00       9.949       9.890       9.817       9.744       9.670       9.597       9.545       9.496       9.455    
        9.421       9.391       9.344       9.274       9.181       9.074       8.991       8.933       8.885       8.833    
        8.784       8.748       8.700       8.632       8.556       8.434       8.309       8.210       8.095       7.811    
        7.309       6.765       6.374       6.112       5.827       5.459       5.038       4.614       4.316       4.039    
        3.758       3.347       2.854       2.500       2.083       1.516      0.9448      0.5489      0.2761       0.000    
   6    10.00       9.937       9.866       9.809       9.740       9.664       9.602       9.555       9.505       9.467    
        9.436       9.399       9.338       9.256       9.176       9.088       8.998       8.925       8.864       8.804    
        8.761       8.721       8.677       8.605       8.492       8.375       8.283       8.174       7.979       7.569    
        7.006       6.512       6.215       6.020       5.790       5.385       4.930       4.598       4.380       4.140    
        3.870       3.499       3.012       2.573       2.057       1.450      0.8472      0.4827      0.2697       0.000    
   7    10.00       9.918       9.852       9.797       9.731       9.676       9.617       9.568       9.526       9.485    
        9.444       9.391       9.317       9.237       9.165       9.092       8.991       8.893       8.827       8.778    
        8.736       8.693       8.648       8.550       8.434       8.341       8.238       8.062       7.727       7.203    
        6.672       6.289       6.107       5.958       5.664       5.261       4.964       4.679       4.446       4.282    
        4.011       3.630       3.109       2.541       1.906       1.208      0.7101      0.4901      0.2482       0.000    
   8    10.00       9.913       9.852       9.793       9.733       9.685       9.634       9.587       9.546       9.507    
        9.447       9.369       9.291       9.222       9.153       9.062       8.943       8.851       8.801       8.754    
        8.704       8.668       8.591       8.486       8.382       8.272       8.076       7.795       7.334       6.881    
        6.489       6.192       6.056       5.873       5.540       5.232       4.987       4.780       4.596       4.404    
        4.124       3.655       3.055       2.407       1.683       1.091      0.7515      0.4808      0.2216       0.000    
   9    10.00       9.917       9.848       9.790       9.747       9.706       9.657       9.610       9.564       9.518    
        9.442       9.346       9.266       9.195       9.112       9.010       8.902       8.821       8.769       8.720    
        8.675       8.616       8.508       8.410       8.302       8.146       7.860       7.437       6.981       6.658    
        6.352       6.139       5.988       5.744       5.439       5.203       5.031       4.876       4.721       4.512    
        4.165       3.678       3.040       2.317       1.650       1.129      0.7667      0.4770      0.2365       0.000    
  10    10.00       9.916       9.846       9.797       9.760       9.720       9.676       9.635       9.581       9.509    
        9.416       9.319       9.241       9.162       9.075       8.957       8.849       8.783       8.738       8.689    
        8.643       8.544       8.428       8.320       8.168       7.931       7.500       7.044       6.690       6.449    
        6.269       6.098       5.892       5.643       5.388       5.214       5.089       4.962       4.788       4.546    
        4.174       3.641       2.959       2.314       1.787       1.294      0.8213      0.5067      0.2671       0.000    
  11    10.00       9.904       9.850       9.810       9.772       9.737       9.698       9.643       9.566       9.484    
        9.391       9.296       9.220       9.116       8.996       8.892       8.815       8.754       8.710       8.655    
        8.571       8.442       8.275       8.114       7.847       7.492       7.112       6.814       6.533       6.363    
        6.212       5.985       5.755       5.571       5.405       5.281       5.158       4.995       4.789       4.506    
        4.157       3.686       2.998       2.410       1.944       1.471      0.9471      0.5025      0.2018       0.000    
  12    10.00       9.913       9.859       9.817       9.785       9.748       9.705       9.630       9.538       9.454    
        9.365       9.270       9.168       9.042       8.943       8.854       8.773       8.723       8.664       8.579    
        8.413       8.193       7.959       7.716       7.386       7.116       6.921       6.613       6.385       6.255    
        6.097       5.884       5.705       5.554       5.449       5.337       5.191       5.007       4.761       4.465    
        4.122       3.662       3.033       2.509       2.087       1.577      0.9976      0.4760      0.1583       0.000    
  13    10.00       9.932       9.882       9.836       9.795       9.752       9.689       9.596       9.500       9.418    
        9.324       9.228       9.120       8.989       8.876       8.787       8.730       8.664       8.580       8.378    
        8.075       7.807       7.555       7.252       6.995       6.877       6.635       6.357       6.244       6.138    
        5.970       5.789       5.664       5.565       5.481       5.378       5.211       4.982       4.742       4.437    
        4.097       3.631       2.982       2.492       2.102       1.544      0.9295      0.4307      0.1245       0.000    
  14    10.00       9.950       9.905       9.856       9.807       9.741       9.649       9.551       9.465       9.370    
        9.277       9.188       9.060       8.913       8.810       8.739       8.644       8.542       8.340       7.984    
        7.661       7.424       7.092       6.847       6.733       6.601       6.352       6.194       6.079       5.976    
        5.837       5.731       5.660       5.583       5.497       5.392       5.205       4.954       4.698       4.388    
        4.024       3.460       2.849       2.454       1.975       1.439      0.9160      0.3932      0.1012       0.000    
  15    10.00       9.960       9.915       9.866       9.808       9.709       9.595       9.509       9.423       9.332    
        9.261       9.158       8.987       8.827       8.732       8.605       8.477       8.347       8.006       7.589    
        7.325       6.989       6.689       6.599       6.532       6.357       6.158       6.004       5.923       5.851    
        5.771       5.714       5.662       5.598       5.508       5.380       5.163       4.878       4.609       4.323    
        3.929       3.381       2.854       2.322       1.743       1.263      0.7874      0.3463      0.1040       0.000    
  16    10.00       9.971       9.926       9.867       9.777       9.655       9.557       9.487       9.410       9.316    
        9.220       9.071       8.874       8.720       8.581       8.431       8.344       8.079       7.585       7.203    
        6.937       6.610       6.501       6.448       6.320       6.100       5.941       5.871       5.851       5.804    
        5.748       5.703       5.661       5.594       5.485       5.325       5.065       4.807       4.595       4.290    
        3.841       3.250       2.643       2.051       1.558       1.083      0.6706      0.3286      0.1108       0.000    
  17    10.00       9.970       9.923       9.845       9.733       9.611       9.529       9.464       9.377       9.272    
        9.111       8.921       8.744       8.575       8.403       8.259       8.042       7.599       7.141       6.879    
        6.620       6.422       6.337       6.213       6.012       5.850       5.810       5.807       5.796       5.758    
        5.716       5.684       5.646       5.582       5.423       5.205       4.982       4.802       4.602       4.217    
        3.617       3.014       2.432       1.851       1.333      0.8760      0.5618      0.2937      0.1207       0.000    
  18    10.00       9.963       9.908       9.814       9.674       9.576       9.511       9.423       9.322       9.175    
        8.980       8.811       8.632       8.405       8.179       7.939       7.623       7.176       6.836       6.609    
        6.400       6.235       6.105       5.928       5.793       5.753       5.744       5.744       5.726       5.699    
        5.678       5.655       5.612       5.501       5.336       5.151       4.966       4.806       4.525       4.009    
        3.395       2.751       2.128       1.650       1.237      0.8212      0.4826      0.2429      0.1164       0.000    
  19    10.00       9.955       9.893       9.757       9.617       9.559       9.487       9.378       9.254       9.094    
        8.917       8.757       8.498       8.152       7.884       7.639       7.258       6.854       6.627       6.453    
        6.239       6.039       5.896       5.761       5.696       5.683       5.680       5.664       5.638       5.632    
        5.625       5.607       5.543       5.437       5.300       5.122       4.956       4.725       4.242       3.704    
        3.207       2.540       1.947       1.567       1.156      0.7410      0.4358      0.2474      0.1267       0.000    
  20    10.00       9.945       9.841       9.701       9.599       9.537       9.457       9.341       9.202       9.057    
        8.875       8.631       8.243       7.901       7.663       7.361       6.985       6.766       6.560       6.319    
        6.083       5.905       5.757       5.662       5.615       5.592       5.564       5.558       5.545       5.554    
        5.558       5.543       5.476       5.380       5.240       5.088       4.880       4.456       3.933       3.503    
        2.961       2.345       1.901       1.533       1.118      0.6579      0.3809      0.2576      0.1327       0.000    
  21    10.00       9.908       9.797       9.680       9.580       9.514       9.428       9.291       9.153       9.016    
        8.771       8.398       8.004       7.747       7.482       7.166       6.888       6.681       6.433       6.179    
        5.954       5.780       5.651       5.551       5.485       5.435       5.419       5.428       5.432       5.450    
        5.471       5.447       5.380       5.291       5.152       4.985       4.659       4.213       3.799       3.276    
        2.762       2.275       1.899       1.527      0.9428      0.5332      0.3857      0.2910      0.1396       0.000    
  22    10.00       9.884       9.751       9.646       9.567       9.487       9.365       9.238       9.116       8.926    
        8.612       8.191       7.879       7.648       7.351       7.027       6.763       6.544       6.318       6.079    
        5.855       5.671       5.499       5.345       5.258       5.239       5.256       5.271       5.309       5.334    
        5.358       5.330       5.276       5.184       5.047       4.881       4.549       4.120       3.579       3.072    
        2.699       2.310       1.858       1.233      0.7365      0.5319      0.4044      0.2694      9.9656E-02   0.000    
  23    10.00       9.850       9.720       9.637       9.553       9.434       9.301       9.206       9.052       8.814    
        8.447       8.088       7.864       7.575       7.191       6.870       6.662       6.485       6.274       6.016    
        5.781       5.566       5.319       5.029       4.818       4.861       4.997       5.087       5.167       5.222    
        5.245       5.233       5.185       5.098       4.970       4.784       4.450       3.920       3.376       3.018    
        2.675       2.184       1.533      0.9956      0.7253      0.5427      0.3884      0.2292      9.1240E-02   0.000    
  24    10.00       9.826       9.732       9.633       9.513       9.388       9.287       9.181       9.033       8.718    
        8.374       8.109       7.856       7.471       7.050       6.819       6.644       6.470       6.231       5.989    
        5.780       5.506       5.110       4.562       3.894       4.165       4.571       4.854       5.022       5.109    
        5.154       5.149       5.113       5.019       4.875       4.639       4.214       3.712       3.304       2.932    
        2.510       1.961       1.378      0.9663      0.7272      0.5291      0.3546      0.2485      0.1220       0.000    
  25    10.00       9.846       9.750       9.625       9.500       9.385       9.284       9.187       8.965       8.660    
        8.395       8.127       7.796       7.373       7.061       6.854       6.656       6.446       6.228       6.019    
        5.779       5.517       4.952       3.909       2.056       3.433       4.178       4.622       4.897       5.041    
        5.095       5.096       5.051       4.920       4.721       4.397       3.994       3.599       3.250       2.814    
        2.304       1.779       1.287      0.9585      0.7542      0.5501      0.3738      0.2604      0.1621       0.000    
  26    10.00       9.867       9.773       9.642       9.507       9.403       9.296       9.153       8.934       8.721    
        8.473       8.107       7.702       7.360       7.124       6.922       6.691       6.433       6.222       6.047    
        5.847       5.588       5.099       4.332       3.482       3.835       4.284       4.615       4.869       5.026    
        5.071       5.060       4.982       4.823       4.601       4.293       3.847       3.469       3.141       2.609    
        2.031       1.569       1.275       1.047      0.8135      0.5941      0.4076      0.2829      0.1653       0.000    
  27    10.00       9.894       9.778       9.661       9.545       9.421       9.302       9.158       8.977       8.783    
        8.470       8.059       7.704       7.420       7.221       6.989       6.689       6.420       6.254       6.111    
        5.954       5.714       5.343       4.889       4.427       4.394       4.564       4.774       4.963       5.055    
        5.068       5.041       4.948       4.773       4.513       4.093       3.670       3.356       2.853       2.290    
        1.839       1.541       1.320       1.120      0.8895      0.6486      0.4429      0.3115      0.1965       0.000    
  28    10.00       9.901       9.807       9.700       9.586       9.456       9.324       9.185       9.028       8.801    
        8.437       8.079       7.770       7.491       7.280       7.053       6.807       6.547       6.312       6.163    
        6.038       5.866       5.626       5.295       5.011       4.843       4.875       5.009       5.074       5.100    
        5.082       5.033       4.916       4.691       4.344       3.905       3.536       3.091       2.563       2.161    
        1.837       1.584       1.367       1.159      0.9348      0.7079      0.5026      0.3548      0.2028       0.000    
  29    10.00       9.908       9.816       9.732       9.621       9.504       9.375       9.232       9.060       8.758    
        8.419       8.116       7.823       7.588       7.348       7.106       6.883       6.674       6.448       6.251    
        6.115       5.984       5.824       5.626       5.355       5.221       5.203       5.209       5.212       5.173    
        5.111       5.010       4.867       4.575       4.144       3.750       3.371       2.903       2.478       2.181    
        1.917       1.640       1.394       1.194      0.9918      0.7490      0.5313      0.3709      0.2057       0.000    
  30    10.00       9.921       9.844       9.771       9.671       9.556       9.440       9.278       9.048       8.773    
        8.431       8.104       7.864       7.630       7.403       7.184       7.004       6.809       6.589       6.379    
        6.212       6.101       5.964       5.830       5.682       5.561       5.518       5.424       5.362       5.263    
        5.130       4.954       4.745       4.432       4.087       3.712       3.305       2.862       2.538       2.266    
        1.953       1.674       1.459       1.232      0.9909      0.7756      0.5666      0.3941      0.2215       0.000    
  31    10.00       9.937       9.874       9.805       9.731       9.638       9.507       9.307       9.045       8.756    
        8.428       8.135       7.916       7.688       7.477       7.276       7.096       6.944       6.723       6.512    
        6.359       6.239       6.133       6.029       5.953       5.842       5.721       5.615       5.482       5.327    
        5.114       4.880       4.660       4.399       4.066       3.666       3.250       2.884       2.652       2.394    
        2.045       1.739       1.494       1.262       1.038      0.8165      0.6008      0.4150      0.2149       0.000    
  32    10.00       9.946       9.901       9.841       9.771       9.683       9.544       9.316       9.078       8.805    
        8.467       8.196       7.990       7.756       7.533       7.369       7.212       7.032       6.855       6.647    
        6.490       6.363       6.268       6.181       6.093       6.002       5.860       5.727       5.565       5.350    
        5.099       4.857       4.621       4.366       4.037       3.675       3.348       3.034       2.768       2.473    
        2.151       1.847       1.588       1.321       1.077      0.8888      0.6632      0.4076      0.1821       0.000    
  33    10.00       9.954       9.919       9.868       9.797       9.704       9.525       9.301       9.109       8.866    
        8.557       8.300       8.058       7.797       7.602       7.463       7.326       7.142       6.946       6.770    
        6.595       6.467       6.352       6.255       6.175       6.085       5.944       5.766       5.595       5.387    
        5.132       4.906       4.655       4.335       4.025       3.701       3.434       3.186       2.886       2.560    
        2.281       1.992       1.707       1.431       1.173      0.9635      0.7105      0.4102      0.1783       0.000    
  34    10.00       9.962       9.936       9.893       9.801       9.666       9.502       9.346       9.149       8.908    
        8.647       8.369       8.100       7.846       7.685       7.570       7.423       7.248       7.029       6.860    
        6.705       6.546       6.422       6.324       6.245       6.135       5.974       5.804       5.617       5.377    
        5.152       4.962       4.718       4.406       4.092       3.790       3.537       3.292       2.980       2.683    
        2.432       2.154       1.842       1.566       1.305       1.063      0.7608      0.4620      0.2422       0.000    
  35    10.00       9.969       9.936       9.876       9.764       9.633       9.516       9.382       9.224       8.966    
        8.681       8.406       8.137       7.926       7.780       7.659       7.504       7.320       7.111       6.911    
        6.762       6.616       6.489       6.395       6.307       6.195       6.016       5.812       5.594       5.345    
        5.172       4.979       4.727       4.498       4.232       3.911       3.628       3.420       3.123       2.803    
        2.560       2.275       1.962       1.691       1.418       1.154      0.8726      0.5783      0.2861       0.000    
  36    10.00       9.962       9.911       9.845       9.742       9.620       9.523       9.410       9.240       8.994    
        8.688       8.400       8.207       8.044       7.900       7.747       7.566       7.382       7.164       6.914    
        6.751       6.640       6.528       6.449       6.359       6.220       6.022       5.797       5.532       5.300    
        5.148       4.991       4.769       4.545       4.321       4.034       3.749       3.525       3.258       2.909    
        2.642       2.324       2.011       1.804       1.539       1.244      0.9627      0.6552      0.3206       0.000    
  37    10.00       9.942       9.888       9.823       9.723       9.618       9.508       9.400       9.247       8.964    
        8.647       8.426       8.311       8.155       7.977       7.827       7.610       7.385       7.118       6.869    
        6.751       6.658       6.551       6.466       6.364       6.197       5.996       5.710       5.464       5.305    
        5.166       4.993       4.774       4.595       4.366       4.093       3.870       3.653       3.354       2.970    
        2.619       2.320       2.103       1.887       1.622       1.343       1.061      0.7226      0.3968       0.000    
  38    10.00       9.935       9.866       9.798       9.711       9.612       9.497       9.381       9.207       8.943    
        8.707       8.530       8.382       8.243       8.055       7.818       7.579       7.326       7.032       6.858    
        6.762       6.644       6.539       6.466       6.353       6.162       5.870       5.599       5.463       5.338    
        5.191       5.007       4.806       4.628       4.403       4.154       3.970       3.750       3.367       2.944    
        2.640       2.390       2.173       1.951       1.716       1.432       1.151      0.8357      0.4130       0.000    
  39    10.00       9.918       9.851       9.790       9.707       9.595       9.475       9.357       9.194       8.978    
        8.793       8.658       8.494       8.306       8.046       7.756       7.489       7.197       6.984       6.867    
        6.731       6.596       6.516       6.447       6.340       6.089       5.789       5.616       5.490       5.361    
        5.196       5.020       4.826       4.646       4.475       4.269       4.027       3.761       3.383       2.989    
        2.667       2.409       2.239       2.052       1.788       1.507       1.222      0.8697      0.4076       0.000    
  40    10.00       9.909       9.845       9.784       9.700       9.586       9.469       9.352       9.207       9.029    
        8.877       8.759       8.565       8.281       7.960       7.671       7.388       7.136       6.977       6.838    
        6.683       6.563       6.492       6.410       6.267       6.045       5.836       5.660       5.516       5.383    
        5.221       5.031       4.846       4.696       4.544       4.336       4.056       3.777       3.394       2.970    
        2.669       2.465       2.277       2.118       1.840       1.532       1.271      0.8720      0.4060       0.000    
  41    10.00       9.918       9.845       9.771       9.681       9.592       9.494       9.386       9.243       9.082    
        8.937       8.798       8.555       8.224       7.893       7.622       7.343       7.100       6.946       6.797    
        6.642       6.536       6.460       6.361       6.212       6.042       5.900       5.728       5.548       5.390    
        5.235       5.062       4.884       4.753       4.592       4.384       4.104       3.718       3.278       2.952    
        2.733       2.535       2.341       2.119       1.830       1.535       1.312      0.9289      0.4212       0.000    
  42    10.00       9.918       9.835       9.771       9.705       9.622       9.519       9.397       9.276       9.153    
        8.972       8.740       8.460       8.144       7.838       7.590       7.318       7.079       6.915       6.747    
        6.602       6.508       6.425       6.335       6.197       6.077       5.955       5.761       5.560       5.417    
        5.288       5.099       4.908       4.780       4.632       4.410       4.065       3.610       3.207       2.964    
        2.799       2.622       2.375       2.079       1.802       1.571       1.340      0.9797      0.4834       0.000    
  43    10.00       9.912       9.842       9.787       9.735       9.656       9.554       9.439       9.306       9.120    
        8.892       8.654       8.392       8.064       7.788       7.558       7.314       7.074       6.866       6.710    
        6.578       6.484       6.412       6.337       6.219       6.093       5.970       5.770       5.593       5.488    
        5.331       5.126       4.942       4.810       4.636       4.348       3.950       3.519       3.225       3.038    
        2.863       2.659       2.356       2.053       1.808       1.585       1.386      0.9935      0.4540       0.000    
  44    10.00       9.911       9.851       9.802       9.739       9.680       9.597       9.445       9.251       9.039    
        8.848       8.607       8.291       8.017       7.795       7.532       7.265       7.014       6.808       6.670    
        6.573       6.491       6.416       6.338       6.236       6.107       5.941       5.775       5.655       5.529    
        5.388       5.209       4.998       4.797       4.585       4.263       3.845       3.490       3.262       3.082    
        2.905       2.664       2.371       2.109       1.846       1.608       1.363      0.8969      0.4125       0.000    
  45    10.00       9.921       9.865       9.801       9.741       9.689       9.556       9.377       9.182       8.999    
        8.842       8.522       8.193       7.994       7.757       7.467       7.177       6.945       6.777       6.666    
        6.591       6.513       6.431       6.338       6.226       6.099       5.959       5.830       5.725       5.594    
        5.430       5.245       5.028       4.774       4.520       4.173       3.781       3.501       3.328       3.142    
        2.906       2.630       2.379       2.140       1.907       1.670       1.273      0.7971      0.4012       0.000    
  46    10.00       9.936       9.877       9.802       9.732       9.633       9.488       9.353       9.190       8.994    
        8.735       8.431       8.168       7.915       7.664       7.383       7.114       6.941       6.803       6.696    
        6.620       6.544       6.441       6.325       6.216       6.109       5.998       5.879       5.773       5.657    
        5.510       5.315       5.068       4.767       4.405       4.044       3.754       3.556       3.375       3.181    
        2.902       2.608       2.357       2.168       1.946       1.637       1.186      0.7615      0.3754       0.000    
  47    10.00       9.948       9.892       9.818       9.699       9.568       9.445       9.339       9.189       8.932    
        8.622       8.343       8.115       7.903       7.636       7.331       7.093       6.929       6.819       6.729    
        6.647       6.559       6.451       6.329       6.221       6.137       6.044       5.927       5.805       5.692    
        5.564       5.400       5.073       4.651       4.297       4.037       3.794       3.623       3.463       3.196    
        2.855       2.543       2.317       2.186       1.940       1.561       1.121      0.7346      0.3712       0.000    
  48    10.00       9.954       9.896       9.786       9.665       9.551       9.427       9.320       9.169       8.879    
        8.541       8.307       8.120       7.861       7.550       7.274       7.095       6.931       6.821       6.751    
        6.668       6.562       6.445       6.333       6.245       6.177       6.095       5.965       5.824       5.702    
        5.567       5.370       5.030       4.680       4.364       4.077       3.860       3.685       3.481       3.141    
        2.774       2.534       2.354       2.122       1.799       1.463       1.086      0.7400      0.3918       0.000    
  49    10.00       9.951       9.864       9.758       9.666       9.545       9.424       9.311       9.120       8.814    
        8.512       8.288       8.054       7.792       7.558       7.301       7.052       6.899       6.832       6.766    
        6.688       6.566       6.430       6.333       6.266       6.215       6.120       5.972       5.823       5.712    
        5.566       5.307       5.007       4.759       4.494       4.178       3.897       3.682       3.441       3.076    
        2.781       2.570       2.321       1.987       1.701       1.398       1.068      0.7523      0.3831       0.000    
  50    10.00       9.939       9.842       9.746       9.672       9.559       9.425       9.281       9.075       8.833    
        8.527       8.227       7.984       7.775       7.586       7.298       7.015       6.899       6.840       6.777    
        6.701       6.564       6.420       6.331       6.277       6.231       6.125       5.965       5.823       5.710    
        5.551       5.279       5.047       4.835       4.549       4.235       3.950       3.664       3.317       2.994    
        2.838       2.616       2.252       1.916       1.676       1.387       1.101      0.7348      0.3018       0.000    

 HEAD WILL BE SAVED ON UNIT   51 AT END OF TIME STEP  73, STRESS PERIOD    2

 DRAWDOWN WILL BE SAVED ON UNIT   52 AT END OF TIME STEP  73, STRESS PERIOD    2
1
  VOLUMETRIC BUDGET FOR ENTIRE MODEL AT END OF TIME STEP 73 IN STRESS PERIOD   2
  ------------------------------------------------------------------------------

     CUMULATIVE VOLUMES      L**3       RATES FOR THIS TIME STEP      L**3/T
     ------------------                 ------------------------

           IN:                                      IN:
           ---                                      ---
             STORAGE =       34488.0703               STORAGE =         414.8340
       CONSTANT HEAD =       41874.6875         CONSTANT HEAD =         619.4146
               WELLS =           0.0000                 WELLS =           0.0000

            TOTAL IN =       76362.7578              TOTAL IN =        1034.2485

          OUT:                                     OUT:
          ----                                     ----
             STORAGE =       9.3745E-03               STORAGE =           0.0000
       CONSTANT HEAD =       39862.7305         CONSTANT HEAD =         534.2485
               WELLS =       36500.0000                 WELLS =         500.0000

           TOTAL OUT =       76362.7422             TOTAL OUT =        1034.2485

            IN - OUT =       1.5625E-02              IN - OUT =           0.0000

 PERCENT DISCREPANCY =           0.00     PERCENT DISCREPANCY =           0.00






          TIME SUMMARY AT END OF TIME STEP  73 IN STRESS PERIOD    2
                    SECONDS     MINUTES      HOURS       DAYS        YEARS
                    -----------------------------------------------------------
   TIME STEP LENGTH  86400.      1440.0      24.000      1.0000     2.73785E-03
 STRESS PERIOD TIME 6.30720E+06 1.05120E+05  1752.0      73.000     0.19986    
         TOTAL TIME 6.39360E+06 1.06560E+05  1776.0      74.000     0.20260    
1
 
 SOLVING FOR HEAD 

 OUTPUT CONTROL FOR STRESS PERIOD    2   TIME STEP  74
    SAVE HEAD FOR ALL LAYERS
    SAVE DRAWDOWN FOR ALL LAYERS
    SAVE BUDGET
    PRINT HEAD FOR ALL LAYERS
    PRINT BUDGET
 UBDSV1 SAVING "         STORAGE" ON UNIT  53 AT TIME STEP 74, STRESS PERIOD   2
 UBDSV2 SAVING "   CONSTANT HEAD" ON UNIT  53 AT TIME STEP 74, STRESS PERIOD   2
 UBDSV1 SAVING "FLOW RIGHT FACE " ON UNIT  53 AT TIME STEP 74, STRESS PERIOD   2
 UBDSV1 SAVING "FLOW FRONT FACE " ON UNIT  53 AT TIME STEP 74, STRESS PERIOD   2
1
              HEAD IN LAYER   1 AT END OF TIME STEP  74 IN STRESS PERIOD    2
  ---------------------------------------------------------------------------

            1           2           3           4           5           6           7           8           9          10
           11          12          13          14          15          16          17          18          19          20
           21          22          23          24          25          26          27          28          29          30
           31          32          33          34          35          36          37          38          39          40
           41          42          43          44          45          46          47          48          49          50
 ........................................................................................................................
   1    10.00       9.953       9.889       9.825       9.772       9.707       9.644       9.577       9.488       9.415    
        9.372       9.329       9.281       9.234       9.158       9.075       8.985       8.914       8.882       8.847    
        8.805       8.768       8.731       8.685       8.620       8.509       8.375       8.245       8.096       7.948    
        7.739       7.406       7.015       6.602       6.141       5.714       5.353       5.018       4.562       4.066    
        3.644       3.228       2.655       2.111       1.730       1.348       1.028      0.8217      0.5450       0.000    
   2    10.00       9.953       9.895       9.831       9.775       9.715       9.644       9.557       9.471       9.415    
        9.376       9.337       9.301       9.242       9.155       9.069       8.986       8.917       8.883       8.843    
        8.799       8.772       8.742       8.692       8.618       8.512       8.376       8.241       8.102       7.954    
        7.728       7.384       6.972       6.506       6.040       5.629       5.306       4.978       4.514       4.049    
        3.624       3.124       2.606       2.177       1.799       1.443       1.079      0.7803      0.4167       0.000    
   3    10.00       9.948       9.893       9.834       9.777       9.708       9.620       9.537       9.482       9.431    
        9.386       9.353       9.317       9.261       9.174       9.067       8.979       8.922       8.879       8.840    
        8.803       8.773       8.743       8.681       8.602       8.493       8.365       8.262       8.114       7.940    
        7.647       7.247       6.806       6.353       5.925       5.545       5.257       4.919       4.416       3.963    
        3.610       3.157       2.682       2.270       1.878       1.520       1.088      0.6694      0.2945       0.000    
   4    10.00       9.952       9.896       9.832       9.761       9.682       9.598       9.536       9.489       9.441    
        9.402       9.374       9.334       9.273       9.193       9.076       8.979       8.926       8.879       8.842    
        8.800       8.765       8.727       8.660       8.579       8.473       8.348       8.232       8.116       7.897    
        7.517       7.025       6.552       6.205       5.889       5.522       5.154       4.723       4.299       3.971    
        3.658       3.258       2.784       2.378       1.968       1.535       1.038      0.5943      0.2768       0.000    
   5    10.00       9.949       9.889       9.816       9.743       9.669       9.596       9.543       9.495       9.453    
        9.419       9.389       9.342       9.272       9.178       9.071       8.988       8.929       8.882       8.830    
        8.781       8.744       8.696       8.629       8.552       8.430       8.305       8.206       8.090       7.807    
        7.304       6.760       6.369       6.107       5.822       5.454       5.034       4.609       4.312       4.035    
        3.754       3.344       2.851       2.498       2.082       1.515      0.9440      0.5485      0.2759       0.000    
   6    10.00       9.936       9.866       9.809       9.740       9.663       9.601       9.554       9.504       9.466    
        9.434       9.397       9.336       9.254       9.173       9.085       8.995       8.922       8.861       8.800    
        8.757       8.718       8.673       8.602       8.488       8.371       8.278       8.170       7.974       7.564    
        7.001       6.507       6.209       6.014       5.785       5.379       4.925       4.593       4.375       4.136    
        3.866       3.496       3.009       2.571       2.056       1.449      0.8465      0.4823      0.2695       0.000    
   7    10.00       9.918       9.852       9.796       9.730       9.675       9.616       9.566       9.524       9.483    
        9.442       9.389       9.315       9.235       9.162       9.089       8.988       8.890       8.824       8.775    
        8.733       8.690       8.644       8.546       8.430       8.337       8.234       8.057       7.722       7.197    
        6.666       6.282       6.101       5.952       5.658       5.255       4.959       4.674       4.441       4.277    
        4.006       3.626       3.106       2.539       1.904       1.207      0.7096      0.4897      0.2480       0.000    
   8    10.00       9.913       9.852       9.792       9.732       9.684       9.633       9.585       9.544       9.505    
        9.445       9.367       9.289       9.219       9.150       9.059       8.940       8.847       8.797       8.750    
        8.700       8.664       8.587       8.482       8.378       8.267       8.071       7.790       7.328       6.874    
        6.482       6.185       6.049       5.867       5.534       5.226       4.981       4.774       4.591       4.399    
        4.119       3.651       3.052       2.404       1.681       1.090      0.7509      0.4804      0.2214       0.000    
   9    10.00       9.917       9.848       9.789       9.746       9.705       9.656       9.609       9.562       9.517    
        9.440       9.344       9.263       9.192       9.109       9.007       8.899       8.817       8.765       8.716    
        8.671       8.611       8.504       8.406       8.297       8.141       7.854       7.431       6.974       6.651    
        6.344       6.132       5.981       5.737       5.432       5.197       5.025       4.870       4.715       4.507    
        4.161       3.674       3.037       2.315       1.649       1.128      0.7661      0.4766      0.2363       0.000    
  10    10.00       9.915       9.845       9.797       9.759       9.719       9.675       9.634       9.580       9.507    
        9.414       9.317       9.238       9.160       9.072       8.953       8.845       8.780       8.734       8.685    
        8.639       8.539       8.424       8.315       8.163       7.925       7.494       7.037       6.683       6.441    
        6.261       6.090       5.885       5.635       5.381       5.207       5.083       4.956       4.782       4.541    
        4.169       3.637       2.956       2.311       1.785       1.293      0.8206      0.5063      0.2669       0.000    
  11    10.00       9.904       9.850       9.809       9.771       9.736       9.697       9.642       9.564       9.482    
        9.389       9.294       9.218       9.113       8.992       8.889       8.811       8.750       8.705       8.650    
        8.566       8.437       8.270       8.108       7.840       7.485       7.104       6.806       6.525       6.355    
        6.204       5.977       5.747       5.564       5.398       5.274       5.152       4.988       4.783       4.500    
        4.152       3.682       2.995       2.408       1.942       1.470      0.9463      0.5021      0.2016       0.000    
  12    10.00       9.912       9.859       9.816       9.784       9.747       9.704       9.629       9.536       9.452    
        9.363       9.268       9.165       9.038       8.939       8.850       8.769       8.719       8.659       8.575    
        8.408       8.187       7.953       7.710       7.378       7.107       6.912       6.605       6.377       6.246    
        6.088       5.875       5.697       5.546       5.441       5.330       5.184       5.000       4.755       4.459    
        4.117       3.658       3.029       2.506       2.086       1.576      0.9968      0.4757      0.1582       0.000    
  13    10.00       9.932       9.882       9.836       9.794       9.751       9.688       9.595       9.498       9.415    
        9.321       9.225       9.117       8.986       8.872       8.783       8.726       8.660       8.576       8.373    
        8.068       7.800       7.547       7.244       6.986       6.868       6.626       6.347       6.234       6.128    
        5.961       5.780       5.656       5.556       5.473       5.370       5.204       4.975       4.736       4.432    
        4.092       3.627       2.978       2.490       2.100       1.543      0.9288      0.4304      0.1244       0.000    
  14    10.00       9.950       9.905       9.856       9.806       9.740       9.647       9.549       9.463       9.368    
        9.274       9.185       9.056       8.909       8.805       8.734       8.639       8.537       8.335       7.977    
        7.653       7.415       7.083       6.837       6.724       6.591       6.342       6.183       6.069       5.966    
        5.827       5.721       5.650       5.574       5.488       5.384       5.197       4.947       4.691       4.382    
        4.018       3.456       2.846       2.451       1.973       1.438      0.9153      0.3930      0.1012       0.000    
  15    10.00       9.960       9.915       9.865       9.807       9.708       9.593       9.507       9.421       9.329    
        9.258       9.154       8.984       8.823       8.727       8.600       8.471       8.341       7.999       7.581    
        7.316       6.979       6.678       6.589       6.521       6.346       6.147       5.993       5.912       5.840    
        5.760       5.704       5.652       5.589       5.499       5.371       5.155       4.871       4.602       4.317    
        3.924       3.377       2.850       2.320       1.741       1.262      0.7867      0.3460      0.1039       0.000    
  16    10.00       9.971       9.926       9.867       9.776       9.654       9.555       9.485       9.407       9.313    
        9.217       9.067       8.869       8.715       8.575       8.425       8.337       8.072       7.576       7.193    
        6.927       6.599       6.490       6.437       6.309       6.088       5.929       5.860       5.840       5.793    
        5.737       5.693       5.651       5.584       5.475       5.316       5.056       4.799       4.588       4.283    
        3.836       3.246       2.640       2.049       1.556       1.082      0.6700      0.3283      0.1107       0.000    
  17    10.00       9.970       9.923       9.845       9.732       9.609       9.527       9.462       9.375       9.269    
        9.108       8.917       8.739       8.570       8.397       8.253       8.035       7.590       7.131       6.869    
        6.609       6.411       6.326       6.202       6.001       5.838       5.798       5.795       5.785       5.747    
        5.706       5.673       5.636       5.571       5.414       5.196       4.973       4.794       4.595       4.211    
        3.612       3.010       2.429       1.849       1.331      0.8753      0.5614      0.2934      0.1206       0.000    
  18    10.00       9.963       9.907       9.814       9.672       9.574       9.508       9.420       9.319       9.171    
        8.975       8.806       8.627       8.399       8.172       7.932       7.615       7.166       6.825       6.598    
        6.389       6.224       6.094       5.916       5.781       5.741       5.732       5.732       5.714       5.688    
        5.667       5.644       5.601       5.490       5.326       5.142       4.957       4.798       4.518       4.003    
        3.391       2.748       2.126       1.648       1.235      0.8204      0.4821      0.2427      0.1163       0.000    
  19    10.00       9.955       9.893       9.756       9.615       9.557       9.484       9.375       9.250       9.090    
        8.912       8.752       8.491       8.145       7.876       7.630       7.248       6.843       6.616       6.442    
        6.227       6.027       5.884       5.749       5.684       5.671       5.668       5.652       5.626       5.621    
        5.613       5.596       5.532       5.426       5.289       5.113       4.948       4.717       4.235       3.699    
        3.203       2.537       1.945       1.565       1.155      0.7403      0.4354      0.2472      0.1266       0.000    
  20    10.00       9.944       9.840       9.700       9.597       9.534       9.455       9.338       9.198       9.053    
        8.869       8.625       8.235       7.892       7.654       7.351       6.974       6.755       6.548       6.307    
        6.071       5.892       5.745       5.650       5.603       5.580       5.551       5.546       5.533       5.542    
        5.546       5.531       5.465       5.369       5.230       5.078       4.871       4.449       3.927       3.498    
        2.957       2.343       1.899       1.531       1.117      0.6573      0.3805      0.2574      0.1326       0.000    
  21    10.00       9.908       9.796       9.679       9.578       9.511       9.425       9.288       9.149       9.011    
        8.765       8.391       7.996       7.738       7.473       7.155       6.877       6.669       6.421       6.167    
        5.942       5.768       5.638       5.539       5.472       5.423       5.406       5.416       5.420       5.438    
        5.459       5.434       5.368       5.279       5.141       4.975       4.650       4.205       3.793       3.271    
        2.758       2.272       1.897       1.525      0.9420      0.5327      0.3854      0.2908      0.1395       0.000    
  22    10.00       9.883       9.749       9.644       9.564       9.484       9.362       9.234       9.112       8.921    
        8.605       8.183       7.871       7.639       7.341       7.017       6.751       6.532       6.306       6.066    
        5.843       5.659       5.486       5.332       5.245       5.226       5.243       5.258       5.296       5.321    
        5.345       5.317       5.264       5.172       5.036       4.871       4.540       4.113       3.574       3.068    
        2.696       2.307       1.856       1.232      0.7359      0.5315      0.4041      0.2691      9.9582E-02   0.000    
  23    10.00       9.849       9.718       9.636       9.551       9.431       9.298       9.202       9.047       8.808    
        8.440       8.080       7.855       7.566       7.180       6.859       6.651       6.473       6.262       6.004    
        5.769       5.554       5.306       5.016       4.805       4.848       4.984       5.074       5.154       5.209    
        5.232       5.220       5.172       5.086       4.959       4.774       4.441       3.913       3.371       3.014    
        2.672       2.182       1.532      0.9948      0.7248      0.5423      0.3881      0.2291      9.1177E-02   0.000    
  24    10.00       9.825       9.731       9.632       9.511       9.385       9.283       9.177       9.028       8.712    
        8.367       8.101       7.847       7.461       7.039       6.808       6.633       6.458       6.219       5.976    
        5.767       5.494       5.097       4.549       3.880       4.152       4.558       4.841       5.009       5.096    
        5.141       5.136       5.101       5.007       4.864       4.629       4.206       3.705       3.299       2.928    
        2.507       1.959       1.377      0.9655      0.7267      0.5287      0.3543      0.2484      0.1219       0.000    
  25    10.00       9.845       9.749       9.623       9.497       9.382       9.281       9.183       8.960       8.654    
        8.388       8.119       7.787       7.363       7.050       6.843       6.645       6.435       6.216       6.007    
        5.767       5.505       4.939       3.896       2.042       3.419       4.164       4.608       4.883       5.027    
        5.082       5.083       5.038       4.908       4.710       4.388       3.987       3.593       3.245       2.810    
        2.301       1.778       1.286      0.9578      0.7537      0.5498      0.3735      0.2602      0.1620       0.000    
  26    10.00       9.866       9.772       9.640       9.505       9.400       9.293       9.149       8.929       8.715    
        8.466       8.099       7.692       7.350       7.114       6.911       6.680       6.422       6.210       6.035    
        5.835       5.576       5.087       4.318       3.468       3.822       4.270       4.601       4.855       5.012    
        5.057       5.047       4.969       4.811       4.591       4.284       3.840       3.464       3.136       2.606    
        2.029       1.568       1.274       1.046      0.8129      0.5937      0.4073      0.2828      0.1652       0.000    
  27    10.00       9.893       9.777       9.659       9.542       9.419       9.298       9.154       8.972       8.777    
        8.463       8.051       7.695       7.410       7.211       6.978       6.678       6.408       6.243       6.099    
        5.942       5.702       5.330       4.876       4.414       4.380       4.550       4.760       4.949       5.042    
        5.054       5.028       4.935       4.761       4.503       4.085       3.664       3.351       2.850       2.288    
        1.837       1.540       1.319       1.119      0.8889      0.6482      0.4426      0.3113      0.1964       0.000    
  28    10.00       9.901       9.806       9.698       9.584       9.453       9.321       9.181       9.023       8.796    
        8.430       8.071       7.761       7.481       7.270       7.042       6.796       6.535       6.300       6.151    
        6.026       5.854       5.614       5.282       4.998       4.829       4.862       4.995       5.061       5.086    
        5.069       5.020       4.905       4.680       4.335       3.898       3.531       3.087       2.560       2.159    
        1.836       1.583       1.366       1.158      0.9342      0.7075      0.5023      0.3546      0.2027       0.000    
  29    10.00       9.908       9.815       9.731       9.619       9.501       9.372       9.228       9.056       8.753    
        8.413       8.109       7.814       7.579       7.338       7.096       6.873       6.663       6.437       6.239    
        6.104       5.972       5.812       5.613       5.342       5.208       5.190       5.195       5.198       5.160    
        5.098       4.998       4.856       4.566       4.137       3.744       3.367       2.899       2.475       2.179    
        1.915       1.639       1.393       1.193      0.9912      0.7486      0.5310      0.3707      0.2056       0.000    
  30    10.00       9.920       9.843       9.770       9.670       9.554       9.437       9.275       9.043       8.768    
        8.425       8.096       7.856       7.621       7.393       7.174       6.994       6.798       6.577       6.368    
        6.201       6.089       5.952       5.817       5.669       5.548       5.505       5.411       5.349       5.250    
        5.118       4.944       4.736       4.425       4.081       3.707       3.301       2.859       2.535       2.264    
        1.951       1.673       1.459       1.231      0.9903      0.7751      0.5663      0.3939      0.2214       0.000    
  31    10.00       9.937       9.874       9.804       9.730       9.636       9.505       9.304       9.041       8.751    
        8.422       8.128       7.908       7.679       7.468       7.267       7.086       6.934       6.712       6.501    
        6.348       6.228       6.121       6.017       5.941       5.830       5.709       5.603       5.470       5.316    
        5.104       4.871       4.652       4.392       4.060       3.662       3.247       2.881       2.650       2.392    
        2.044       1.738       1.493       1.261       1.038      0.8161      0.6005      0.4148      0.2148       0.000    
  32    10.00       9.945       9.900       9.840       9.770       9.682       9.542       9.313       9.075       8.800    
        8.461       8.189       7.982       7.747       7.524       7.360       7.203       7.022       6.845       6.637    
        6.479       6.351       6.257       6.170       6.082       5.991       5.849       5.716       5.554       5.340    
        5.091       4.850       4.614       4.360       4.032       3.672       3.345       3.031       2.766       2.471    
        2.150       1.846       1.587       1.320       1.076      0.8884      0.6629      0.4074      0.1820       0.000    
  33    10.00       9.954       9.919       9.867       9.797       9.703       9.523       9.298       9.106       8.861    
        8.552       8.294       8.051       7.789       7.594       7.454       7.317       7.132       6.937       6.760    
        6.584       6.456       6.341       6.244       6.165       6.074       5.933       5.756       5.585       5.378    
        5.124       4.899       4.649       4.330       4.020       3.697       3.431       3.183       2.884       2.559    
        2.280       1.991       1.706       1.431       1.173      0.9631      0.7102      0.4101      0.1783       0.000    
  34    10.00       9.962       9.935       9.892       9.801       9.665       9.500       9.344       9.145       8.904    
        8.642       8.363       8.093       7.839       7.677       7.562       7.415       7.239       7.020       6.851    
        6.695       6.536       6.412       6.314       6.235       6.125       5.964       5.794       5.608       5.370    
        5.146       4.956       4.713       4.402       4.088       3.787       3.534       3.290       2.978       2.681    
        2.431       2.153       1.841       1.565       1.304       1.063      0.7606      0.4619      0.2422       0.000    
  35    10.00       9.969       9.936       9.875       9.763       9.632       9.514       9.380       9.221       8.962    
        8.677       8.401       8.131       7.919       7.773       7.652       7.496       7.312       7.102       6.902    
        6.754       6.607       6.481       6.386       6.298       6.187       6.007       5.804       5.586       5.339    
        5.167       4.974       4.723       4.494       4.229       3.909       3.626       3.418       3.121       2.802    
        2.559       2.274       1.962       1.690       1.418       1.153      0.8724      0.5782      0.2861       0.000    
  36    10.00       9.962       9.910       9.844       9.741       9.619       9.521       9.408       9.237       8.991    
        8.684       8.394       8.202       8.037       7.893       7.740       7.558       7.374       7.156       6.907    
        6.744       6.632       6.520       6.441       6.351       6.212       6.015       5.790       5.527       5.296    
        5.144       4.987       4.766       4.542       4.319       4.032       3.747       3.523       3.257       2.907    
        2.641       2.323       2.011       1.803       1.539       1.244      0.9625      0.6550      0.3205       0.000    
  37    10.00       9.942       9.888       9.822       9.722       9.616       9.506       9.398       9.244       8.961    
        8.643       8.421       8.305       8.149       7.971       7.820       7.603       7.378       7.111       6.862    
        6.744       6.651       6.544       6.459       6.357       6.190       5.990       5.706       5.460       5.301    
        5.163       4.990       4.771       4.593       4.364       4.092       3.868       3.652       3.352       2.969    
        2.619       2.320       2.102       1.887       1.622       1.343       1.061      0.7224      0.3967       0.000    
  38    10.00       9.935       9.866       9.798       9.710       9.610       9.496       9.379       9.205       8.940    
        8.703       8.525       8.377       8.237       8.049       7.813       7.573       7.320       7.026       6.851    
        6.756       6.638       6.534       6.460       6.348       6.156       5.866       5.595       5.459       5.335    
        5.188       5.004       4.804       4.626       4.401       4.152       3.968       3.748       3.366       2.943    
        2.639       2.389       2.173       1.950       1.716       1.432       1.151      0.8355      0.4129       0.000    
  39    10.00       9.918       9.850       9.789       9.706       9.594       9.473       9.355       9.192       8.976    
        8.790       8.654       8.490       8.301       8.041       7.751       7.483       7.192       6.979       6.861    
        6.726       6.591       6.511       6.442       6.335       6.084       5.785       5.613       5.487       5.358    
        5.193       5.017       4.824       4.644       4.474       4.268       4.026       3.759       3.382       2.988    
        2.667       2.409       2.238       2.052       1.788       1.507       1.222      0.8696      0.4075       0.000    
  40    10.00       9.909       9.845       9.784       9.699       9.585       9.468       9.351       9.206       9.027    
        8.874       8.756       8.561       8.277       7.956       7.667       7.384       7.131       6.973       6.833    
        6.679       6.559       6.488       6.406       6.263       6.042       5.833       5.657       5.513       5.380    
        5.219       5.028       4.844       4.694       4.543       4.334       4.055       3.776       3.392       2.970    
        2.668       2.464       2.277       2.117       1.839       1.532       1.271      0.8719      0.4059       0.000    
  41    10.00       9.918       9.844       9.771       9.680       9.591       9.493       9.385       9.242       9.080    
        8.934       8.795       8.552       8.220       7.890       7.618       7.340       7.096       6.942       6.793    
        6.638       6.532       6.456       6.358       6.209       6.039       5.897       5.725       5.545       5.388    
        5.233       5.060       4.882       4.751       4.590       4.382       4.102       3.717       3.277       2.951    
        2.732       2.534       2.340       2.118       1.829       1.535       1.312      0.9288      0.4211       0.000    
  42    10.00       9.918       9.835       9.771       9.705       9.622       9.518       9.396       9.275       9.151    
        8.970       8.737       8.457       8.142       7.835       7.587       7.315       7.075       6.911       6.743    
        6.599       6.505       6.422       6.332       6.194       6.074       5.952       5.759       5.557       5.415    
        5.286       5.097       4.907       4.779       4.630       4.408       4.064       3.609       3.206       2.963    
        2.798       2.621       2.374       2.079       1.802       1.571       1.340      0.9795      0.4833       0.000    
  43    10.00       9.911       9.842       9.787       9.734       9.655       9.554       9.438       9.305       9.118    
        8.890       8.652       8.389       8.061       7.785       7.555       7.311       7.071       6.863       6.707    
        6.575       6.481       6.409       6.334       6.216       6.090       5.967       5.767       5.591       5.486    
        5.329       5.124       4.940       4.808       4.634       4.347       3.949       3.518       3.224       3.037    
        2.862       2.658       2.355       2.052       1.807       1.585       1.385      0.9933      0.4539       0.000    
  44    10.00       9.911       9.851       9.801       9.739       9.680       9.596       9.444       9.250       9.038    
        8.847       8.605       8.289       8.015       7.793       7.530       7.262       7.011       6.805       6.668    
        6.570       6.488       6.414       6.336       6.234       6.105       5.939       5.773       5.653       5.527    
        5.386       5.207       4.996       4.796       4.584       4.262       3.844       3.489       3.262       3.082    
        2.904       2.663       2.370       2.108       1.846       1.607       1.363      0.8968      0.4124       0.000    
  45    10.00       9.921       9.865       9.801       9.740       9.689       9.555       9.376       9.181       8.998    
        8.841       8.520       8.192       7.992       7.755       7.465       7.175       6.942       6.775       6.664    
        6.588       6.510       6.428       6.336       6.223       6.097       5.956       5.828       5.723       5.592    
        5.428       5.243       5.026       4.772       4.519       4.172       3.780       3.500       3.327       3.142    
        2.906       2.630       2.378       2.139       1.907       1.669       1.273      0.7970      0.4011       0.000    
  46    10.00       9.936       9.876       9.802       9.732       9.632       9.488       9.353       9.189       8.993    
        8.734       8.430       8.166       7.913       7.662       7.381       7.112       6.939       6.801       6.693    
        6.618       6.542       6.438       6.323       6.213       6.107       5.995       5.877       5.771       5.655    
        5.508       5.313       5.066       4.765       4.403       4.043       3.753       3.555       3.374       3.180    
        2.901       2.607       2.357       2.168       1.946       1.636       1.185      0.7613      0.3753       0.000    
  47    10.00       9.948       9.892       9.818       9.699       9.568       9.444       9.338       9.188       8.931    
        8.621       8.342       8.113       7.901       7.634       7.329       7.091       6.927       6.816       6.727    
        6.645       6.556       6.448       6.326       6.219       6.135       6.042       5.925       5.803       5.690    
        5.562       5.398       5.071       4.650       4.296       4.036       3.793       3.622       3.462       3.195    
        2.855       2.543       2.316       2.186       1.940       1.561       1.121      0.7345      0.3711       0.000    
  48    10.00       9.954       9.895       9.786       9.664       9.551       9.426       9.319       9.168       8.878    
        8.540       8.306       8.118       7.859       7.548       7.272       7.093       6.929       6.819       6.749    
        6.666       6.560       6.443       6.331       6.243       6.175       6.092       5.963       5.822       5.700    
        5.565       5.369       5.028       4.678       4.362       4.076       3.859       3.684       3.480       3.140    
        2.774       2.534       2.353       2.122       1.799       1.463       1.086      0.7399      0.3917       0.000    
  49    10.00       9.951       9.863       9.758       9.666       9.545       9.423       9.310       9.120       8.813    
        8.510       8.287       8.053       7.791       7.556       7.299       7.050       6.897       6.829       6.764    
        6.685       6.564       6.428       6.331       6.263       6.213       6.118       5.969       5.821       5.710    
        5.564       5.306       5.005       4.758       4.493       4.177       3.896       3.681       3.440       3.076    
        2.780       2.570       2.321       1.987       1.701       1.398       1.068      0.7522      0.3831       0.000    
  50    10.00       9.939       9.842       9.745       9.672       9.558       9.424       9.280       9.074       8.832    
        8.526       8.226       7.982       7.773       7.585       7.296       7.013       6.897       6.838       6.775    
        6.699       6.562       6.417       6.329       6.275       6.229       6.123       5.963       5.821       5.708    
        5.549       5.277       5.046       4.834       4.547       4.233       3.949       3.663       3.316       2.993    
        2.837       2.615       2.252       1.916       1.676       1.387       1.101      0.7347      0.3018       0.000    

 HEAD WILL BE SAVED ON UNIT   51 AT END OF TIME STEP  74, STRESS PERIOD    2

 DRAWDOWN WILL BE SAVED ON UNIT   52 AT END OF TIME STEP  74, STRESS PERIOD    2
1
  VOLUMETRIC BUDGET FOR ENTIRE MODEL AT END OF TIME STEP 74 IN STRESS PERIOD   2
  ------------------------------------------------------------------------------

     CUMULATIVE VOLUMES      L**3       RATES FOR THIS TIME STEP      L**3/T
     ------------------                 ------------------------

           IN:                                      IN:
           ---                                      ---
             STORAGE =       34900.8789               STORAGE =         412.8080
       CONSTANT HEAD =       42495.8672         CONSTANT HEAD =         621.1800
               WELLS =           0.0000                 WELLS =           0.0000

            TOTAL IN =       77396.7500              TOTAL IN =        1033.9879

          OUT:                                     OUT:
          ----                                     ----
             STORAGE =       9.3745E-03               STORAGE =           0.0000
       CONSTANT HEAD =       40396.7188         CONSTANT HEAD =         533.9883
               WELLS =       37000.0000                 WELLS =         500.0000

           TOTAL OUT =       77396.7266             TOTAL OUT =        1033.9883

            IN - OUT =       2.3438E-02              IN - OUT =      -3.6621E-04

 PERCENT DISCREPANCY =           0.00     PERCENT DISCREPANCY =           0.00






          TIME SUMMARY AT END OF TIME STEP  74 IN STRESS PERIOD    2
                    SECONDS     MINUTES      HOURS       DAYS        YEARS
                    -----------------------------------------------------------
   TIME STEP LENGTH  86400.      1440.0      24.000      1.0000     2.73785E-03
 STRESS PERIOD TIME 6.39360E+06 1.06560E+05  1776.0      74.000     0.20260    
         TOTAL TIME 6.48000E+06 1.08000E+05  1800.0      75.000     0.20534    
1
 
 SOLVING FOR HEAD 

 OUTPUT CONTROL FOR STRESS PERIOD    2   TIME STEP  75
    SAVE HEAD FOR ALL LAYERS
    SAVE DRAWDOWN FOR ALL LAYERS
    SAVE BUDGET
    PRINT HEAD FOR ALL LAYERS
    PRINT BUDGET
 UBDSV1 SAVING "         STORAGE" ON UNIT  53 AT TIME STEP 75, STRESS PERIOD   2
 UBDSV2 SAVING "   CONSTANT HEAD" ON UNIT  53 AT TIME STEP 75, STRESS PERIOD   2
 UBDSV1 SAVING "FLOW RIGHT FACE " ON UNIT  53 AT TIME STEP 75, STRESS PERIOD   2
 UBDSV1 SAVING "FLOW FRONT FACE " ON UNIT  53 AT TIME STEP 75, STRESS PERIOD   2
1
              HEAD IN LAYER   1 AT END OF TIME STEP  75 IN STRESS PERIOD    2
  ---------------------------------------------------------------------------

            1           2           3           4           5           6           7           8           9          10
           11          12          13          14          15          16          17          18          19          20
           21          22          23          24          25          26          27          28          29          30
           31          32          33          34          35          36          37          38          39          40
           41          42          43          44          45          46          47          48          49          50
 ........................................................................................................................
   1    10.00       9.953       9.889       9.825       9.772       9.707       9.643       9.576       9.486       9.413    
        9.370       9.327       9.279       9.232       9.156       9.072       8.982       8.911       8.879       8.844    
        8.801       8.765       8.728       8.681       8.617       8.505       8.371       8.241       8.092       7.944    
        7.735       7.402       7.011       6.599       6.137       5.710       5.349       5.015       4.558       4.062    
        3.641       3.226       2.653       2.109       1.728       1.347       1.028      0.8210      0.5446       0.000    
   2    10.00       9.953       9.895       9.831       9.774       9.714       9.643       9.555       9.469       9.413    
        9.374       9.335       9.299       9.240       9.152       9.066       8.983       8.914       8.879       8.840    
        8.796       8.768       8.738       8.689       8.615       8.508       8.373       8.237       8.098       7.951    
        7.724       7.380       6.968       6.502       6.036       5.625       5.302       4.974       4.511       4.046    
        3.621       3.121       2.604       2.175       1.797       1.442       1.078      0.7797      0.4163       0.000    
   3    10.00       9.948       9.893       9.834       9.776       9.707       9.619       9.536       9.481       9.429    
        9.385       9.351       9.315       9.259       9.171       9.064       8.976       8.919       8.876       8.836    
        8.800       8.770       8.740       8.678       8.598       8.489       8.361       8.258       8.110       7.936    
        7.643       7.243       6.802       6.348       5.921       5.541       5.254       4.915       4.413       3.960    
        3.607       3.154       2.679       2.268       1.876       1.518       1.087      0.6689      0.2942       0.000    
   4    10.00       9.952       9.896       9.832       9.761       9.681       9.596       9.534       9.488       9.439    
        9.400       9.372       9.331       9.271       9.191       9.073       8.976       8.922       8.876       8.839    
        8.797       8.761       8.723       8.657       8.575       8.469       8.344       8.228       8.112       7.893    
        7.512       7.020       6.547       6.200       5.884       5.518       5.150       4.719       4.295       3.967    
        3.654       3.255       2.782       2.376       1.967       1.533       1.037      0.5938      0.2766       0.000    
   5    10.00       9.948       9.889       9.816       9.742       9.668       9.594       9.542       9.493       9.451    
        9.417       9.387       9.340       9.269       9.176       9.068       8.985       8.926       8.879       8.826    
        8.777       8.741       8.692       8.625       8.548       8.426       8.301       8.201       8.086       7.802    
        7.299       6.754       6.364       6.102       5.817       5.449       5.029       4.605       4.307       4.031    
        3.751       3.340       2.849       2.496       2.080       1.513      0.9432      0.5480      0.2757       0.000    
   6    10.00       9.936       9.865       9.808       9.739       9.662       9.600       9.552       9.502       9.464    
        9.432       9.395       9.334       9.252       9.171       9.082       8.992       8.919       8.857       8.797    
        8.754       8.714       8.670       8.598       8.484       8.367       8.274       8.166       7.970       7.559    
        6.995       6.501       6.203       6.008       5.779       5.374       4.920       4.589       4.371       4.131    
        3.862       3.493       3.007       2.568       2.054       1.447      0.8458      0.4820      0.2693       0.000    
   7    10.00       9.918       9.851       9.796       9.729       9.674       9.614       9.565       9.523       9.482    
        9.441       9.387       9.313       9.233       9.160       9.086       8.985       8.886       8.820       8.771    
        8.729       8.686       8.640       8.542       8.425       8.332       8.230       8.053       7.717       7.192    
        6.660       6.276       6.094       5.946       5.652       5.249       4.953       4.669       4.437       4.273    
        4.002       3.622       3.103       2.536       1.902       1.206      0.7090      0.4893      0.2478       0.000    
   8    10.00       9.913       9.851       9.791       9.732       9.683       9.632       9.584       9.543       9.503    
        9.443       9.365       9.287       9.217       9.148       9.056       8.936       8.844       8.793       8.746    
        8.696       8.660       8.583       8.477       8.373       8.263       8.066       7.785       7.322       6.867    
        6.476       6.178       6.043       5.860       5.527       5.219       4.976       4.769       4.586       4.394    
        4.115       3.648       3.049       2.402       1.680       1.089      0.7502      0.4800      0.2212       0.000    
   9    10.00       9.917       9.847       9.788       9.746       9.704       9.655       9.607       9.561       9.515    
        9.438       9.342       9.261       9.189       9.106       9.004       8.895       8.813       8.762       8.712    
        8.667       8.607       8.500       8.401       8.293       8.136       7.849       7.424       6.967       6.644    
        6.337       6.125       5.974       5.730       5.426       5.190       5.019       4.865       4.710       4.502    
        4.156       3.670       3.034       2.313       1.647       1.127      0.7654      0.4762      0.2361       0.000    
  10    10.00       9.915       9.845       9.796       9.758       9.718       9.674       9.633       9.578       9.506    
        9.412       9.314       9.235       9.157       9.069       8.950       8.841       8.776       8.730       8.681    
        8.634       8.535       8.419       8.310       8.158       7.919       7.487       7.029       6.675       6.433    
        6.253       6.083       5.877       5.628       5.374       5.200       5.076       4.950       4.777       4.535    
        4.164       3.633       2.953       2.309       1.784       1.292      0.8199      0.5059      0.2666       0.000    
  11    10.00       9.904       9.849       9.809       9.770       9.735       9.696       9.641       9.563       9.481    
        9.387       9.291       9.215       9.110       8.989       8.885       8.808       8.746       8.701       8.646    
        8.562       8.433       8.265       8.103       7.834       7.478       7.096       6.798       6.517       6.346    
        6.196       5.969       5.739       5.556       5.390       5.267       5.145       4.982       4.777       4.495    
        4.147       3.678       2.992       2.406       1.941       1.469      0.9456      0.5017      0.2015       0.000    
  12    10.00       9.912       9.858       9.815       9.783       9.746       9.703       9.627       9.534       9.450    
        9.361       9.265       9.163       9.035       8.935       8.846       8.765       8.714       8.655       8.570    
        8.403       8.182       7.946       7.703       7.370       7.099       6.904       6.596       6.368       6.238    
        6.079       5.867       5.689       5.537       5.434       5.322       5.177       4.993       4.749       4.454    
        4.112       3.654       3.026       2.504       2.084       1.575      0.9961      0.4753      0.1581       0.000    
  13    10.00       9.931       9.881       9.835       9.794       9.751       9.687       9.593       9.497       9.413    
        9.319       9.222       9.114       8.982       8.868       8.779       8.721       8.655       8.571       8.368    
        8.062       7.793       7.539       7.235       6.978       6.859       6.616       6.338       6.225       6.119    
        5.951       5.771       5.647       5.548       5.464       5.362       5.196       4.968       4.730       4.426    
        4.087       3.622       2.975       2.487       2.098       1.541      0.9281      0.4301      0.1243       0.000    
  14    10.00       9.950       9.904       9.855       9.805       9.739       9.646       9.547       9.460       9.365    
        9.271       9.182       9.053       8.905       8.801       8.730       8.634       8.532       8.329       7.970    
        7.645       7.407       7.074       6.828       6.714       6.581       6.332       6.173       6.058       5.956    
        5.817       5.712       5.641       5.565       5.479       5.375       5.189       4.940       4.684       4.376    
        4.013       3.452       2.842       2.449       1.972       1.437      0.9146      0.3927      0.1011       0.000    
  15    10.00       9.960       9.914       9.864       9.807       9.707       9.592       9.505       9.418       9.327    
        9.255       9.151       8.980       8.818       8.722       8.595       8.466       8.335       7.992       7.573    
        7.307       6.970       6.668       6.578       6.511       6.335       6.137       5.982       5.902       5.829    
        5.750       5.694       5.642       5.579       5.490       5.363       5.147       4.863       4.596       4.311    
        3.919       3.373       2.847       2.318       1.740       1.261      0.7861      0.3458      0.1038       0.000    
  16    10.00       9.970       9.925       9.866       9.775       9.652       9.553       9.483       9.405       9.310    
        9.213       9.063       8.865       8.710       8.570       8.419       8.331       8.065       7.568       7.184    
        6.918       6.589       6.479       6.426       6.298       6.077       5.918       5.849       5.829       5.783    
        5.727       5.682       5.641       5.574       5.466       5.307       5.048       4.791       4.581       4.277    
        3.831       3.242       2.637       2.047       1.555       1.081      0.6694      0.3280      0.1107       0.000    
  17    10.00       9.970       9.922       9.844       9.731       9.608       9.525       9.460       9.372       9.266    
        9.104       8.912       8.734       8.564       8.391       8.246       8.028       7.582       7.121       6.858    
        6.599       6.400       6.315       6.191       5.989       5.826       5.787       5.784       5.774       5.736    
        5.695       5.663       5.625       5.561       5.404       5.187       4.965       4.786       4.587       4.204    
        3.607       3.006       2.427       1.847       1.330      0.8745      0.5609      0.2932      0.1205       0.000    
  18    10.00       9.963       9.907       9.813       9.671       9.572       9.506       9.417       9.316       9.167    
        8.971       8.801       8.621       8.392       8.165       7.924       7.606       7.156       6.815       6.587    
        6.377       6.212       6.082       5.904       5.769       5.729       5.720       5.721       5.703       5.676    
        5.656       5.634       5.591       5.480       5.316       5.133       4.949       4.790       4.511       3.997    
        3.386       2.744       2.123       1.646       1.234      0.8197      0.4817      0.2425      0.1162       0.000    
  19    10.00       9.954       9.892       9.755       9.614       9.555       9.482       9.372       9.247       9.086    
        8.907       8.747       8.485       8.137       7.868       7.621       7.238       6.832       6.605       6.431    
        6.215       6.015       5.872       5.737       5.672       5.659       5.656       5.640       5.614       5.609    
        5.602       5.584       5.521       5.415       5.279       5.103       4.939       4.709       4.229       3.694    
        3.199       2.534       1.943       1.564       1.154      0.7396      0.4351      0.2469      0.1265       0.000    
  20    10.00       9.944       9.839       9.699       9.596       9.532       9.452       9.334       9.195       9.049    
        8.864       8.619       8.228       7.884       7.645       7.342       6.964       6.744       6.537       6.295    
        6.059       5.880       5.732       5.638       5.590       5.567       5.539       5.533       5.521       5.530    
        5.534       5.519       5.453       5.358       5.219       5.068       4.862       4.441       3.921       3.493    
        2.954       2.340       1.897       1.530       1.116      0.6567      0.3802      0.2571      0.1325       0.000    
  21    10.00       9.907       9.795       9.677       9.576       9.509       9.422       9.284       9.145       9.007    
        8.759       8.384       7.988       7.729       7.463       7.145       6.866       6.658       6.410       6.155    
        5.930       5.755       5.626       5.526       5.460       5.410       5.394       5.403       5.407       5.425    
        5.446       5.422       5.356       5.268       5.130       4.965       4.641       4.198       3.787       3.267    
        2.755       2.270       1.895       1.523      0.9411      0.5323      0.3850      0.2906      0.1394       0.000    
  22    10.00       9.883       9.748       9.643       9.562       9.481       9.359       9.231       9.108       8.916    
        8.599       8.175       7.862       7.629       7.331       7.006       6.740       6.521       6.295       6.055    
        5.831       5.646       5.474       5.320       5.233       5.213       5.231       5.245       5.283       5.308    
        5.332       5.305       5.252       5.160       5.025       4.860       4.531       4.106       3.568       3.064    
        2.692       2.305       1.854       1.230      0.7353      0.5310      0.4038      0.2689      9.9506E-02   0.000    
  23    10.00       9.848       9.717       9.634       9.549       9.428       9.294       9.199       9.043       8.803    
        8.433       8.072       7.847       7.556       7.170       6.848       6.639       6.461       6.250       5.992    
        5.757       5.541       5.294       5.004       4.792       4.836       4.972       5.061       5.141       5.196    
        5.219       5.207       5.160       5.075       4.948       4.764       4.432       3.906       3.366       3.010    
        2.668       2.179       1.530      0.9939      0.7242      0.5419      0.3878      0.2289      9.1113E-02   0.000    
  24    10.00       9.824       9.730       9.630       9.508       9.382       9.280       9.173       9.024       8.706    
        8.360       8.093       7.838       7.451       7.028       6.797       6.622       6.447       6.207       5.964    
        5.755       5.481       5.085       4.536       3.867       4.139       4.545       4.828       4.996       5.083    
        5.128       5.123       5.088       4.995       4.852       4.619       4.198       3.699       3.294       2.924    
        2.504       1.957       1.376      0.9648      0.7261      0.5284      0.3541      0.2482      0.1218       0.000    
  25    10.00       9.845       9.747       9.621       9.495       9.379       9.277       9.179       8.955       8.648    
        8.381       8.111       7.778       7.353       7.040       6.832       6.633       6.423       6.204       5.995    
        5.754       5.492       4.926       3.883       2.028       3.406       4.151       4.595       4.870       5.014    
        5.068       5.070       5.026       4.896       4.699       4.379       3.979       3.587       3.240       2.806    
        2.299       1.776       1.285      0.9571      0.7532      0.5494      0.3733      0.2600      0.1619       0.000    
  26    10.00       9.865       9.771       9.638       9.502       9.397       9.289       9.145       8.924       8.710    
        8.459       8.091       7.683       7.340       7.103       6.900       6.669       6.410       6.198       6.023    
        5.823       5.564       5.074       4.305       3.455       3.808       4.256       4.587       4.842       4.999    
        5.044       5.034       4.957       4.800       4.581       4.275       3.833       3.458       3.131       2.602    
        2.026       1.566       1.273       1.045      0.8124      0.5933      0.4071      0.2826      0.1651       0.000    
  27    10.00       9.893       9.776       9.657       9.540       9.416       9.295       9.150       8.967       8.772    
        8.457       8.043       7.686       7.401       7.201       6.967       6.667       6.397       6.231       6.087    
        5.930       5.690       5.318       4.863       4.401       4.367       4.536       4.747       4.935       5.028    
        5.041       5.015       4.923       4.750       4.493       4.077       3.658       3.346       2.846       2.285    
        1.835       1.539       1.318       1.118      0.8883      0.6477      0.4424      0.3111      0.1963       0.000    
  28    10.00       9.900       9.805       9.697       9.582       9.451       9.317       9.177       9.019       8.790    
        8.424       8.064       7.752       7.472       7.260       7.032       6.786       6.524       6.289       6.139    
        6.014       5.842       5.601       5.269       4.985       4.816       4.848       4.982       5.047       5.073    
        5.056       5.008       4.893       4.670       4.326       3.891       3.525       3.083       2.557       2.157    
        1.834       1.582       1.365       1.157      0.9336      0.7070      0.5020      0.3544      0.2026       0.000    
  29    10.00       9.907       9.814       9.729       9.617       9.499       9.369       9.225       9.051       8.747    
        8.406       8.101       7.806       7.570       7.328       7.086       6.862       6.652       6.425       6.227    
        6.092       5.960       5.800       5.601       5.330       5.195       5.177       5.182       5.185       5.147    
        5.086       4.986       4.845       4.557       4.129       3.738       3.362       2.896       2.473       2.177    
        1.914       1.637       1.392       1.192      0.9906      0.7481      0.5307      0.3705      0.2055       0.000    
  30    10.00       9.920       9.843       9.769       9.668       9.552       9.435       9.271       9.039       8.763    
        8.418       8.089       7.848       7.612       7.384       7.164       6.983       6.788       6.567       6.357    
        6.189       6.077       5.940       5.805       5.657       5.535       5.493       5.398       5.336       5.238    
        5.106       4.933       4.726       4.417       4.074       3.702       3.297       2.856       2.533       2.262    
        1.950       1.672       1.458       1.230      0.9897      0.7747      0.5660      0.3937      0.2213       0.000    
  31    10.00       9.937       9.873       9.803       9.729       9.634       9.503       9.301       9.037       8.746    
        8.416       8.121       7.901       7.671       7.459       7.257       7.076       6.924       6.702       6.490    
        6.337       6.216       6.109       6.005       5.930       5.818       5.697       5.591       5.458       5.305    
        5.094       4.863       4.644       4.385       4.054       3.657       3.243       2.878       2.647       2.390    
        2.043       1.736       1.492       1.261       1.037      0.8157      0.6003      0.4146      0.2147       0.000    
  32    10.00       9.945       9.900       9.839       9.769       9.680       9.540       9.310       9.071       8.796    
        8.455       8.183       7.975       7.739       7.516       7.351       7.193       7.012       6.835       6.626    
        6.468       6.340       6.246       6.159       6.071       5.980       5.837       5.705       5.543       5.330    
        5.082       4.842       4.607       4.354       4.027       3.668       3.342       3.028       2.763       2.469    
        2.148       1.845       1.586       1.320       1.076      0.8880      0.6626      0.4072      0.1819       0.000    
  33    10.00       9.954       9.919       9.867       9.796       9.702       9.521       9.295       9.102       8.857    
        8.546       8.287       8.044       7.782       7.586       7.446       7.308       7.123       6.927       6.750    
        6.574       6.446       6.331       6.234       6.154       6.064       5.922       5.745       5.576       5.370    
        5.117       4.892       4.643       4.325       4.016       3.694       3.428       3.181       2.882       2.557    
        2.279       1.990       1.706       1.430       1.173      0.9627      0.7100      0.4099      0.1782       0.000    
  34    10.00       9.962       9.935       9.892       9.800       9.663       9.498       9.341       9.142       8.900    
        8.637       8.357       8.087       7.832       7.669       7.554       7.406       7.230       7.011       6.841    
        6.686       6.527       6.403       6.304       6.225       6.116       5.955       5.785       5.600       5.362    
        5.140       4.950       4.708       4.398       4.085       3.784       3.531       3.287       2.977       2.680    
        2.430       2.152       1.840       1.565       1.304       1.062      0.7604      0.4618      0.2421       0.000    
  35    10.00       9.969       9.936       9.875       9.762       9.630       9.512       9.377       9.218       8.958    
        8.672       8.395       8.124       7.912       7.765       7.644       7.489       7.304       7.093       6.893    
        6.745       6.598       6.472       6.377       6.290       6.178       5.999       5.796       5.579       5.333    
        5.162       4.970       4.719       4.491       4.226       3.906       3.624       3.417       3.120       2.801    
        2.558       2.273       1.961       1.690       1.418       1.153      0.8722      0.5781      0.2860       0.000    
  36    10.00       9.962       9.910       9.844       9.740       9.618       9.520       9.406       9.235       8.987    
        8.679       8.389       8.196       8.031       7.887       7.733       7.551       7.366       7.148       6.899    
        6.736       6.625       6.513       6.433       6.343       6.204       6.008       5.784       5.521       5.291    
        5.140       4.983       4.763       4.540       4.316       4.030       3.745       3.522       3.255       2.906    
        2.640       2.322       2.010       1.803       1.538       1.244      0.9623      0.6549      0.3204       0.000    
  37    10.00       9.942       9.888       9.822       9.721       9.615       9.505       9.397       9.242       8.957    
        8.639       8.416       8.300       8.143       7.965       7.814       7.596       7.371       7.104       6.855    
        6.737       6.645       6.537       6.452       6.350       6.184       5.984       5.701       5.456       5.297    
        5.159       4.987       4.768       4.590       4.362       4.090       3.866       3.650       3.351       2.968    
        2.618       2.319       2.102       1.886       1.622       1.342       1.060      0.7223      0.3966       0.000    
  38    10.00       9.935       9.865       9.797       9.710       9.609       9.494       9.378       9.203       8.937    
        8.699       8.521       8.373       8.232       8.044       7.807       7.567       7.313       7.020       6.846    
        6.749       6.632       6.528       6.454       6.342       6.150       5.861       5.592       5.456       5.332    
        5.185       5.002       4.801       4.624       4.399       4.150       3.966       3.747       3.365       2.942    
        2.638       2.388       2.172       1.950       1.715       1.432       1.151      0.8353      0.4128       0.000    
  39    10.00       9.917       9.850       9.789       9.705       9.593       9.472       9.353       9.190       8.973    
        8.787       8.651       8.486       8.297       8.036       7.746       7.478       7.186       6.974       6.856    
        6.721       6.586       6.506       6.437       6.330       6.080       5.782       5.610       5.484       5.355    
        5.190       5.015       4.821       4.642       4.472       4.266       4.024       3.758       3.381       2.987    
        2.666       2.408       2.238       2.052       1.787       1.507       1.222      0.8694      0.4074       0.000    
  40    10.00       9.909       9.845       9.783       9.698       9.584       9.466       9.349       9.204       9.024    
        8.871       8.753       8.558       8.273       7.952       7.662       7.379       7.127       6.968       6.829    
        6.674       6.555       6.484       6.401       6.259       6.038       5.830       5.654       5.511       5.377    
        5.216       5.026       4.842       4.692       4.541       4.333       4.053       3.775       3.391       2.969    
        2.668       2.463       2.276       2.117       1.839       1.531       1.271      0.8717      0.4058       0.000    
  41    10.00       9.917       9.844       9.771       9.680       9.590       9.492       9.383       9.240       9.078    
        8.932       8.793       8.549       8.217       7.886       7.614       7.336       7.092       6.938       6.789    
        6.635       6.529       6.452       6.354       6.206       6.037       5.894       5.722       5.543       5.386    
        5.231       5.057       4.880       4.749       4.588       4.381       4.101       3.716       3.276       2.950    
        2.731       2.534       2.340       2.118       1.829       1.534       1.311      0.9286      0.4211       0.000    
  42    10.00       9.918       9.835       9.771       9.704       9.621       9.517       9.395       9.273       9.149    
        8.968       8.735       8.455       8.139       7.832       7.584       7.311       7.072       6.908       6.740    
        6.596       6.502       6.419       6.329       6.192       6.071       5.949       5.756       5.555       5.413    
        5.284       5.095       4.905       4.777       4.628       4.406       4.062       3.608       3.205       2.962    
        2.797       2.620       2.373       2.078       1.801       1.571       1.339      0.9793      0.4832       0.000    
  43    10.00       9.911       9.842       9.787       9.734       9.655       9.553       9.437       9.304       9.117    
        8.889       8.650       8.387       8.059       7.782       7.552       7.308       7.068       6.860       6.704    
        6.572       6.478       6.406       6.331       6.214       6.088       5.965       5.765       5.589       5.484    
        5.327       5.122       4.938       4.806       4.632       4.345       3.948       3.517       3.223       3.037    
        2.861       2.658       2.355       2.052       1.807       1.585       1.385      0.9931      0.4538       0.000    
  44    10.00       9.911       9.851       9.801       9.738       9.679       9.596       9.443       9.249       9.036    
        8.845       8.603       8.287       8.013       7.790       7.527       7.260       7.009       6.803       6.665    
        6.567       6.485       6.411       6.333       6.231       6.102       5.936       5.770       5.651       5.525    
        5.384       5.205       4.995       4.794       4.582       4.260       3.843       3.488       3.261       3.081    
        2.904       2.663       2.370       2.108       1.845       1.607       1.363      0.8966      0.4123       0.000    
  45    10.00       9.921       9.865       9.801       9.740       9.688       9.555       9.376       9.180       8.997    
        8.840       8.519       8.190       7.990       7.753       7.463       7.173       6.940       6.772       6.661    
        6.586       6.508       6.426       6.333       6.221       6.095       5.954       5.826       5.720       5.589    
        5.426       5.241       5.024       4.771       4.517       4.171       3.779       3.499       3.326       3.141    
        2.905       2.629       2.378       2.139       1.907       1.669       1.273      0.7968      0.4010       0.000    
  46    10.00       9.936       9.876       9.802       9.732       9.632       9.487       9.352       9.188       8.992    
        8.733       8.428       8.165       7.911       7.660       7.379       7.109       6.937       6.798       6.691    
        6.615       6.539       6.436       6.320       6.211       6.104       5.993       5.875       5.769       5.653    
        5.506       5.311       5.064       4.764       4.402       4.042       3.752       3.554       3.373       3.180    
        2.901       2.607       2.356       2.167       1.945       1.636       1.185      0.7612      0.3753       0.000    
  47    10.00       9.948       9.891       9.817       9.699       9.567       9.443       9.338       9.187       8.930    
        8.620       8.340       8.111       7.900       7.632       7.326       7.088       6.925       6.814       6.724    
        6.642       6.554       6.446       6.324       6.217       6.132       6.040       5.923       5.801       5.688    
        5.560       5.396       5.069       4.648       4.294       4.035       3.792       3.621       3.461       3.194    
        2.854       2.542       2.316       2.185       1.940       1.561       1.121      0.7344      0.3710       0.000    
  48    10.00       9.954       9.895       9.786       9.664       9.550       9.426       9.319       9.167       8.877    
        8.538       8.304       8.117       7.858       7.546       7.270       7.091       6.926       6.816       6.747    
        6.663       6.557       6.441       6.329       6.240       6.173       6.090       5.961       5.820       5.698    
        5.563       5.367       5.026       4.677       4.361       4.075       3.858       3.683       3.479       3.139    
        2.773       2.533       2.353       2.121       1.799       1.463       1.086      0.7397      0.3916       0.000    
  49    10.00       9.951       9.863       9.757       9.666       9.544       9.423       9.310       9.119       8.812    
        8.509       8.285       8.051       7.789       7.554       7.297       7.048       6.894       6.827       6.762    
        6.683       6.561       6.426       6.329       6.261       6.211       6.116       5.967       5.819       5.708    
        5.563       5.304       5.004       4.756       4.491       4.176       3.895       3.680       3.439       3.075    
        2.780       2.569       2.320       1.986       1.700       1.398       1.068      0.7520      0.3830       0.000    
  50    10.00       9.939       9.842       9.745       9.671       9.558       9.424       9.280       9.073       8.831    
        8.524       8.224       7.981       7.772       7.583       7.294       7.011       6.895       6.836       6.772    
        6.697       6.560       6.415       6.327       6.273       6.227       6.121       5.961       5.819       5.706    
        5.547       5.276       5.044       4.832       4.546       4.232       3.948       3.662       3.315       2.993    
        2.836       2.615       2.251       1.915       1.676       1.387       1.100      0.7346      0.3017       0.000    

 HEAD WILL BE SAVED ON UNIT   51 AT END OF TIME STEP  75, STRESS PERIOD    2

 DRAWDOWN WILL BE SAVED ON UNIT   52 AT END OF TIME STEP  75, STRESS PERIOD    2
1
  VOLUMETRIC BUDGET FOR ENTIRE MODEL AT END OF TIME STEP 75 IN STRESS PERIOD   2
  ------------------------------------------------------------------------------

     CUMULATIVE VOLUMES      L**3       RATES FOR THIS TIME STEP      L**3/T
     ------------------                 ------------------------

           IN:                                      IN:
           ---                                      ---
             STORAGE =       35311.6602               STORAGE =         410.7823
       CONSTANT HEAD =       43118.8086         CONSTANT HEAD =         622.9399
               WELLS =           0.0000                 WELLS =           0.0000

            TOTAL IN =       78430.4688              TOTAL IN =        1033.7222

          OUT:                                     OUT:
          ----                                     ----
             STORAGE =       9.3745E-03               STORAGE =           0.0000
       CONSTANT HEAD =       40930.4414         CONSTANT HEAD =         533.7224
               WELLS =       37500.0000                 WELLS =         500.0000

           TOTAL OUT =       78430.4531             TOTAL OUT =        1033.7224

            IN - OUT =       1.5625E-02              IN - OUT =      -2.4414E-04

 PERCENT DISCREPANCY =           0.00     PERCENT DISCREPANCY =           0.00






          TIME SUMMARY AT END OF TIME STEP  75 IN STRESS PERIOD    2
                    SECONDS     MINUTES      HOURS       DAYS        YEARS
                    -----------------------------------------------------------
   TIME STEP LENGTH  86400.      1440.0      24.000      1.0000     2.73785E-03
 STRESS PERIOD TIME 6.48000E+06 1.08000E+05  1800.0      75.000     0.20534    
         TOTAL TIME 6.56640E+06 1.09440E+05  1824.0      76.000     0.20808    
1
 
 SOLVING FOR HEAD 

 OUTPUT CONTROL FOR STRESS PERIOD    2   TIME STEP  76
    SAVE HEAD FOR ALL LAYERS
    SAVE DRAWDOWN FOR ALL LAYERS
    SAVE BUDGET
    PRINT HEAD FOR ALL LAYERS
    PRINT BUDGET
 UBDSV1 SAVING "         STORAGE" ON UNIT  53 AT TIME STEP 76, STRESS PERIOD   2
 UBDSV2 SAVING "   CONSTANT HEAD" ON UNIT  53 AT TIME STEP 76, STRESS PERIOD   2
 UBDSV1 SAVING "FLOW RIGHT FACE " ON UNIT  53 AT TIME STEP 76, STRESS PERIOD   2
 UBDSV1 SAVING "FLOW FRONT FACE " ON UNIT  53 AT TIME STEP 76, STRESS PERIOD   2
1
              HEAD IN LAYER   1 AT END OF TIME STEP  76 IN STRESS PERIOD    2
  ---------------------------------------------------------------------------

            1           2           3           4           5           6           7           8           9          10
           11          12          13          14          15          16          17          18          19          20
           21          22          23          24          25          26          27          28          29          30
           31          32          33          34          35          36          37          38          39          40
           41          42          43          44          45          46          47          48          49          50
 ........................................................................................................................
   1    10.00       9.953       9.888       9.824       9.771       9.706       9.642       9.575       9.485       9.411    
        9.368       9.325       9.277       9.229       9.153       9.069       8.979       8.908       8.876       8.841    
        8.798       8.761       8.724       8.678       8.613       8.501       8.367       8.237       8.088       7.940    
        7.731       7.398       7.007       6.595       6.133       5.706       5.346       5.011       4.555       4.059    
        3.639       3.223       2.651       2.107       1.727       1.346       1.027      0.8204      0.5441       0.000    
   2    10.00       9.952       9.895       9.830       9.773       9.713       9.642       9.554       9.468       9.411    
        9.372       9.333       9.296       9.237       9.150       9.063       8.980       8.911       8.876       8.837    
        8.793       8.765       8.735       8.685       8.611       8.504       8.369       8.233       8.094       7.947    
        7.720       7.376       6.964       6.498       6.032       5.621       5.298       4.970       4.508       4.042    
        3.618       3.119       2.602       2.173       1.796       1.441       1.077      0.7791      0.4160       0.000    
   3    10.00       9.948       9.892       9.833       9.776       9.706       9.618       9.534       9.479       9.428    
        9.383       9.349       9.312       9.257       9.169       9.061       8.973       8.916       8.873       8.833    
        8.797       8.767       8.736       8.674       8.594       8.486       8.357       8.254       8.106       7.932    
        7.639       7.239       6.797       6.344       5.917       5.537       5.250       4.911       4.409       3.957    
        3.604       3.151       2.677       2.266       1.875       1.517       1.086      0.6683      0.2940       0.000    
   4    10.00       9.952       9.895       9.831       9.760       9.680       9.595       9.533       9.486       9.438    
        9.399       9.370       9.329       9.269       9.188       9.071       8.973       8.919       8.873       8.835    
        8.794       8.758       8.720       8.653       8.571       8.465       8.340       8.224       8.108       7.889    
        7.508       7.016       6.542       6.195       5.879       5.513       5.146       4.715       4.291       3.963    
        3.651       3.252       2.779       2.374       1.965       1.532       1.036      0.5933      0.2764       0.000    
   5    10.00       9.948       9.889       9.815       9.741       9.667       9.593       9.540       9.492       9.450    
        9.416       9.385       9.338       9.267       9.173       9.065       8.982       8.923       8.875       8.823    
        8.774       8.737       8.689       8.621       8.544       8.422       8.296       8.197       8.082       7.798    
        7.294       6.749       6.359       6.096       5.812       5.444       5.025       4.601       4.303       4.027    
        3.747       3.337       2.846       2.494       2.078       1.512      0.9425      0.5476      0.2755       0.000    
   6    10.00       9.936       9.865       9.808       9.738       9.661       9.598       9.551       9.501       9.462    
        9.431       9.393       9.332       9.249       9.168       9.079       8.989       8.916       8.854       8.793    
        8.750       8.710       8.666       8.594       8.480       8.363       8.270       8.161       7.965       7.554    
        6.990       6.495       6.197       6.003       5.773       5.369       4.915       4.584       4.366       4.127    
        3.858       3.489       3.004       2.566       2.052       1.446      0.8451      0.4816      0.2691       0.000    
   7    10.00       9.918       9.851       9.795       9.728       9.673       9.613       9.564       9.521       9.480    
        9.439       9.385       9.310       9.230       9.157       9.083       8.982       8.883       8.817       8.768    
        8.725       8.682       8.636       8.538       8.421       8.328       8.225       8.048       7.712       7.186    
        6.654       6.270       6.088       5.940       5.646       5.244       4.948       4.664       4.432       4.268    
        3.998       3.619       3.100       2.534       1.901       1.205      0.7084      0.4889      0.2476       0.000    
   8    10.00       9.912       9.851       9.791       9.731       9.682       9.630       9.583       9.541       9.502    
        9.442       9.363       9.285       9.214       9.145       9.054       8.933       8.840       8.790       8.743    
        8.693       8.656       8.579       8.473       8.369       8.258       8.061       7.779       7.316       6.861    
        6.469       6.171       6.036       5.854       5.521       5.213       4.970       4.763       4.580       4.389    
        4.110       3.644       3.046       2.400       1.678       1.088      0.7496      0.4796      0.2210       0.000    
   9    10.00       9.916       9.847       9.788       9.745       9.703       9.653       9.606       9.559       9.514    
        9.436       9.340       9.259       9.187       9.103       9.001       8.892       8.810       8.758       8.708    
        8.663       8.603       8.495       8.397       8.288       8.131       7.843       7.418       6.960       6.636    
        6.330       6.118       5.967       5.723       5.419       5.184       5.012       4.859       4.704       4.497    
        4.151       3.666       3.031       2.310       1.646       1.127      0.7648      0.4758      0.2359       0.000    
  10    10.00       9.915       9.844       9.795       9.757       9.717       9.673       9.632       9.577       9.504    
        9.410       9.312       9.233       9.154       9.066       8.947       8.838       8.772       8.726       8.677    
        8.630       8.530       8.414       8.305       8.153       7.914       7.481       7.022       6.667       6.425    
        6.246       6.075       5.869       5.621       5.367       5.194       5.070       4.944       4.771       4.530    
        4.160       3.629       2.950       2.307       1.782       1.290      0.8192      0.5054      0.2664       0.000    
  11    10.00       9.903       9.849       9.808       9.770       9.734       9.695       9.640       9.561       9.479    
        9.385       9.289       9.212       9.107       8.986       8.881       8.804       8.742       8.697       8.642    
        8.557       8.428       8.260       8.097       7.828       7.471       7.089       6.790       6.509       6.338    
        6.188       5.961       5.731       5.548       5.383       5.260       5.138       4.976       4.771       4.489    
        4.142       3.674       2.989       2.403       1.939       1.467      0.9448      0.5013      0.2013       0.000    
  12    10.00       9.912       9.858       9.815       9.782       9.745       9.702       9.626       9.533       9.448    
        9.358       9.263       9.160       9.032       8.932       8.842       8.761       8.710       8.651       8.566    
        8.398       8.176       7.940       7.696       7.363       7.091       6.895       6.587       6.359       6.229    
        6.071       5.858       5.680       5.529       5.426       5.315       5.170       4.986       4.743       4.448    
        4.107       3.650       3.023       2.501       2.082       1.573      0.9953      0.4750      0.1580       0.000    
  13    10.00       9.931       9.881       9.834       9.793       9.750       9.686       9.592       9.495       9.411    
        9.316       9.219       9.111       8.978       8.864       8.775       8.717       8.651       8.566       8.362    
        8.056       7.786       7.532       7.227       6.969       6.850       6.607       6.328       6.215       6.110    
        5.942       5.762       5.638       5.539       5.456       5.354       5.189       4.961       4.723       4.420    
        4.082       3.618       2.972       2.485       2.096       1.540      0.9273      0.4298      0.1242       0.000    
  14    10.00       9.949       9.904       9.854       9.804       9.738       9.644       9.545       9.458       9.363    
        9.268       9.179       9.049       8.901       8.797       8.725       8.629       8.527       8.323       7.964    
        7.638       7.399       7.065       6.818       6.704       6.571       6.321       6.163       6.048       5.946    
        5.807       5.702       5.632       5.556       5.471       5.367       5.181       4.932       4.678       4.370    
        4.008       3.448       2.839       2.446       1.970       1.435      0.9138      0.3923      0.1010       0.000    
  15    10.00       9.960       9.914       9.864       9.806       9.705       9.590       9.503       9.416       9.324    
        9.252       9.148       8.976       8.814       8.718       8.590       8.460       8.329       7.985       7.565    
        7.298       6.960       6.658       6.568       6.501       6.325       6.126       5.971       5.891       5.819    
        5.740       5.684       5.632       5.570       5.481       5.354       5.139       4.856       4.589       4.305    
        3.914       3.369       2.844       2.315       1.738       1.259      0.7854      0.3455      0.1037       0.000    
  16    10.00       9.970       9.925       9.866       9.774       9.651       9.551       9.480       9.402       9.307    
        9.210       9.059       8.860       8.705       8.565       8.413       8.325       8.058       7.560       7.175    
        6.908       6.578       6.469       6.416       6.288       6.066       5.907       5.838       5.818       5.772    
        5.716       5.672       5.631       5.564       5.457       5.298       5.040       4.784       4.574       4.271    
        3.826       3.238       2.634       2.045       1.553       1.080      0.6689      0.3278      0.1106       0.000    
  17    10.00       9.970       9.922       9.843       9.730       9.606       9.523       9.457       9.369       9.262    
        9.100       8.908       8.729       8.559       8.385       8.239       8.021       7.573       7.111       6.848    
        6.588       6.389       6.304       6.179       5.978       5.815       5.775       5.772       5.763       5.725    
        5.684       5.652       5.615       5.551       5.394       5.178       4.956       4.778       4.580       4.198    
        3.602       3.002       2.424       1.845       1.329      0.8736      0.5604      0.2929      0.1204       0.000    
  18    10.00       9.963       9.906       9.812       9.669       9.570       9.504       9.415       9.313       9.164    
        8.966       8.796       8.615       8.386       8.158       7.916       7.598       7.146       6.804       6.576    
        6.366       6.201       6.071       5.893       5.757       5.717       5.709       5.709       5.691       5.665    
        5.645       5.623       5.580       5.470       5.306       5.123       4.940       4.782       4.504       3.991    
        3.381       2.741       2.121       1.645       1.233      0.8189      0.4813      0.2423      0.1161       0.000    
  19    10.00       9.954       9.892       9.754       9.612       9.553       9.479       9.369       9.243       9.082    
        8.902       8.741       8.479       8.130       7.859       7.612       7.229       6.822       6.594       6.419    
        6.204       6.004       5.860       5.725       5.660       5.647       5.644       5.628       5.602       5.597    
        5.590       5.573       5.510       5.405       5.269       5.094       4.930       4.700       4.222       3.688    
        3.194       2.531       1.941       1.562       1.153      0.7389      0.4347      0.2467      0.1264       0.000    
  20    10.00       9.944       9.839       9.697       9.594       9.530       9.450       9.331       9.191       9.044    
        8.859       8.613       8.221       7.876       7.636       7.332       6.953       6.733       6.526       6.284    
        6.047       5.869       5.720       5.626       5.578       5.555       5.527       5.521       5.509       5.518    
        5.522       5.508       5.442       5.347       5.209       5.058       4.853       4.433       3.915       3.487    
        2.950       2.337       1.895       1.528       1.115      0.6561      0.3799      0.2569      0.1324       0.000    
  21    10.00       9.907       9.794       9.675       9.574       9.506       9.419       9.281       9.141       9.002    
        8.754       8.377       7.980       7.721       7.454       7.135       6.856       6.647       6.398       6.143    
        5.918       5.743       5.614       5.514       5.448       5.398       5.382       5.391       5.395       5.413    
        5.434       5.410       5.344       5.257       5.119       4.955       4.633       4.191       3.781       3.262    
        2.751       2.267       1.893       1.522      0.9402      0.5318      0.3847      0.2903      0.1392       0.000    
  22    10.00       9.882       9.747       9.641       9.560       9.479       9.356       9.227       9.104       8.911    
        8.593       8.168       7.853       7.620       7.322       6.996       6.729       6.509       6.283       6.043    
        5.819       5.634       5.462       5.307       5.220       5.201       5.218       5.233       5.271       5.296    
        5.320       5.292       5.240       5.149       5.014       4.850       4.522       4.099       3.562       3.059    
        2.689       2.302       1.852       1.229      0.7347      0.5306      0.4035      0.2687      9.9429E-02   0.000    
  23    10.00       9.847       9.715       9.632       9.546       9.425       9.291       9.195       9.038       8.797    
        8.426       8.064       7.838       7.547       7.160       6.837       6.628       6.450       6.239       5.980    
        5.745       5.529       5.281       4.991       4.780       4.823       4.959       5.048       5.128       5.183    
        5.206       5.195       5.147       5.063       4.937       4.753       4.423       3.899       3.361       3.006    
        2.665       2.177       1.529      0.9930      0.7236      0.5415      0.3875      0.2287      9.1047E-02   0.000    
  24    10.00       9.823       9.728       9.628       9.506       9.379       9.276       9.169       9.019       8.700    
        8.353       8.085       7.830       7.441       7.018       6.786       6.610       6.435       6.195       5.952    
        5.743       5.469       5.072       4.524       3.854       4.125       4.532       4.815       4.983       5.070    
        5.115       5.110       5.076       4.983       4.841       4.609       4.190       3.693       3.289       2.920    
        2.501       1.955       1.374      0.9640      0.7256      0.5280      0.3538      0.2480      0.1218       0.000    
  25    10.00       9.844       9.746       9.619       9.492       9.376       9.274       9.175       8.950       8.642    
        8.374       8.104       7.769       7.343       7.029       6.822       6.622       6.412       6.193       5.983    
        5.742       5.480       4.914       3.870       2.015       3.392       4.137       4.581       4.856       5.001    
        5.055       5.057       5.013       4.885       4.689       4.370       3.972       3.581       3.235       2.803    
        2.296       1.774       1.284      0.9564      0.7526      0.5490      0.3730      0.2599      0.1618       0.000    
  26    10.00       9.865       9.770       9.636       9.500       9.395       9.286       9.141       8.919       8.704    
        8.453       8.083       7.674       7.330       7.093       6.889       6.658       6.399       6.187       6.012    
        5.811       5.551       5.062       4.292       3.441       3.795       4.243       4.574       4.828       4.985    
        5.031       5.021       4.944       4.788       4.570       4.266       3.825       3.452       3.127       2.599    
        2.024       1.565       1.272       1.044      0.8118      0.5929      0.4068      0.2824      0.1650       0.000    
  27    10.00       9.892       9.775       9.656       9.538       9.413       9.292       9.146       8.963       8.766    
        8.450       8.035       7.677       7.391       7.191       6.957       6.656       6.385       6.219       6.075    
        5.918       5.678       5.305       4.850       4.388       4.353       4.523       4.733       4.921       5.015    
        5.028       5.002       4.911       4.739       4.483       4.069       3.651       3.340       2.842       2.283    
        1.834       1.537       1.317       1.117      0.8877      0.6473      0.4421      0.3109      0.1962       0.000    
  28    10.00       9.900       9.804       9.695       9.580       9.448       9.314       9.173       9.015       8.785    
        8.417       8.056       7.744       7.463       7.250       7.022       6.775       6.513       6.277       6.128    
        6.002       5.830       5.589       5.257       4.972       4.803       4.835       4.968       5.034       5.060    
        5.043       4.995       4.881       4.659       4.317       3.884       3.519       3.078       2.554       2.155    
        1.833       1.580       1.364       1.156      0.9330      0.7066      0.5017      0.3542      0.2025       0.000    
  29    10.00       9.907       9.813       9.728       9.615       9.497       9.366       9.221       9.047       8.742    
        8.400       8.094       7.798       7.561       7.319       7.076       6.852       6.641       6.414       6.216    
        6.080       5.948       5.788       5.588       5.317       5.182       5.163       5.169       5.172       5.134    
        5.073       4.975       4.834       4.547       4.122       3.732       3.357       2.892       2.470       2.175    
        1.912       1.636       1.391       1.191      0.9900      0.7477      0.5304      0.3703      0.2054       0.000    
  30    10.00       9.919       9.842       9.768       9.667       9.550       9.432       9.268       9.035       8.758    
        8.412       8.082       7.840       7.604       7.375       7.155       6.973       6.778       6.556       6.346    
        6.178       6.065       5.929       5.793       5.644       5.523       5.480       5.385       5.324       5.226    
        5.095       4.923       4.717       4.409       4.068       3.697       3.293       2.854       2.531       2.260    
        1.948       1.670       1.457       1.229      0.9891      0.7743      0.5657      0.3935      0.2211       0.000    
  31    10.00       9.936       9.873       9.802       9.727       9.633       9.500       9.298       9.033       8.741    
        8.409       8.114       7.893       7.662       7.450       7.248       7.067       6.914       6.691       6.480    
        6.326       6.205       6.098       5.994       5.918       5.806       5.685       5.579       5.447       5.293    
        5.084       4.854       4.636       4.379       4.049       3.653       3.240       2.876       2.645       2.388    
        2.041       1.735       1.491       1.260       1.036      0.8153      0.5999      0.4144      0.2146       0.000    
  32    10.00       9.945       9.900       9.839       9.768       9.679       9.539       9.307       9.067       8.791    
        8.450       8.176       7.967       7.731       7.507       7.343       7.184       7.003       6.825       6.616    
        6.457       6.330       6.235       6.148       6.060       5.969       5.826       5.693       5.532       5.321    
        5.073       4.834       4.600       4.348       4.022       3.664       3.338       3.026       2.761       2.467    
        2.147       1.844       1.585       1.319       1.075      0.8876      0.6623      0.4071      0.1818       0.000    
  33    10.00       9.954       9.918       9.866       9.795       9.701       9.520       9.293       9.099       8.853    
        8.541       8.281       8.037       7.774       7.578       7.437       7.300       7.114       6.917       6.740    
        6.564       6.435       6.321       6.224       6.144       6.053       5.912       5.735       5.567       5.361    
        5.109       4.885       4.636       4.320       4.012       3.690       3.425       3.178       2.880       2.556    
        2.277       1.989       1.705       1.429       1.172      0.9624      0.7097      0.4098      0.1782       0.000    
  34    10.00       9.962       9.935       9.891       9.799       9.662       9.496       9.339       9.139       8.896    
        8.632       8.351       8.080       7.825       7.662       7.546       7.398       7.221       7.002       6.832    
        6.676       6.517       6.393       6.295       6.215       6.106       5.946       5.776       5.591       5.355    
        5.133       4.944       4.703       4.393       4.081       3.781       3.529       3.285       2.975       2.679    
        2.428       2.151       1.840       1.564       1.303       1.062      0.7602      0.4617      0.2421       0.000    
  35    10.00       9.969       9.936       9.874       9.762       9.629       9.511       9.375       9.215       8.954    
        8.667       8.390       8.118       7.906       7.758       7.637       7.481       7.295       7.085       6.884    
        6.736       6.589       6.463       6.368       6.281       6.169       5.990       5.788       5.572       5.327    
        5.157       4.965       4.715       4.487       4.223       3.904       3.622       3.415       3.118       2.800    
        2.557       2.272       1.960       1.689       1.417       1.153      0.8719      0.5779      0.2859       0.000    
  36    10.00       9.962       9.910       9.843       9.739       9.617       9.518       9.404       9.232       8.984    
        8.675       8.384       8.191       8.025       7.880       7.726       7.543       7.359       7.140       6.891    
        6.728       6.617       6.505       6.425       6.336       6.197       6.001       5.777       5.516       5.287    
        5.136       4.980       4.759       4.537       4.314       4.027       3.743       3.520       3.254       2.905    
        2.639       2.322       2.010       1.802       1.538       1.244      0.9620      0.6548      0.3204       0.000    
  37    10.00       9.942       9.887       9.821       9.720       9.614       9.503       9.395       9.240       8.954    
        8.635       8.412       8.295       8.138       7.959       7.808       7.590       7.364       7.098       6.849    
        6.731       6.638       6.530       6.445       6.343       6.177       5.978       5.696       5.452       5.294    
        5.156       4.984       4.765       4.588       4.359       4.088       3.865       3.649       3.350       2.967    
        2.617       2.319       2.101       1.886       1.621       1.342       1.060      0.7221      0.3966       0.000    
  38    10.00       9.935       9.865       9.797       9.709       9.608       9.493       9.376       9.200       8.934    
        8.696       8.517       8.368       8.227       8.038       7.801       7.561       7.307       7.014       6.840    
        6.743       6.626       6.522       6.448       6.336       6.145       5.856       5.588       5.453       5.329    
        5.182       4.999       4.799       4.621       4.398       4.148       3.965       3.745       3.363       2.941    
        2.637       2.388       2.172       1.949       1.715       1.431       1.151      0.8351      0.4127       0.000    
  39    10.00       9.917       9.849       9.788       9.705       9.592       9.471       9.352       9.188       8.971    
        8.784       8.647       8.482       8.292       8.031       7.741       7.473       7.181       6.969       6.851    
        6.716       6.581       6.501       6.432       6.325       6.076       5.779       5.607       5.481       5.352    
        5.188       5.013       4.819       4.640       4.470       4.264       4.022       3.757       3.380       2.986    
        2.665       2.407       2.237       2.051       1.787       1.506       1.221      0.8692      0.4073       0.000    
  40    10.00       9.909       9.844       9.783       9.698       9.583       9.465       9.348       9.202       9.022    
        8.869       8.750       8.554       8.269       7.948       7.658       7.375       7.123       6.964       6.824    
        6.670       6.551       6.480       6.397       6.255       6.035       5.827       5.651       5.508       5.375    
        5.214       5.024       4.840       4.690       4.539       4.331       4.052       3.773       3.390       2.968    
        2.667       2.463       2.275       2.116       1.839       1.531       1.270      0.8715      0.4058       0.000    
  41    10.00       9.917       9.844       9.770       9.679       9.589       9.491       9.382       9.239       9.076    
        8.929       8.790       8.546       8.214       7.883       7.611       7.332       7.088       6.934       6.785    
        6.631       6.525       6.449       6.351       6.203       6.034       5.891       5.720       5.540       5.383    
        5.228       5.055       4.878       4.747       4.587       4.379       4.099       3.714       3.275       2.949    
        2.731       2.533       2.339       2.117       1.829       1.534       1.311      0.9284      0.4210       0.000    
  42    10.00       9.918       9.834       9.770       9.704       9.620       9.516       9.393       9.272       9.147    
        8.966       8.733       8.452       8.136       7.830       7.581       7.308       7.068       6.904       6.737    
        6.592       6.499       6.416       6.326       6.189       6.069       5.947       5.754       5.553       5.411    
        5.282       5.093       4.903       4.775       4.626       4.405       4.061       3.607       3.204       2.961    
        2.796       2.620       2.373       2.078       1.801       1.570       1.339      0.9791      0.4831       0.000    
  43    10.00       9.911       9.841       9.786       9.733       9.654       9.552       9.436       9.302       9.115    
        8.887       8.648       8.385       8.056       7.780       7.550       7.305       7.065       6.857       6.701    
        6.569       6.475       6.403       6.329       6.211       6.085       5.962       5.763       5.587       5.481    
        5.325       5.120       4.936       4.804       4.631       4.344       3.946       3.516       3.222       3.036    
        2.860       2.657       2.354       2.051       1.806       1.584       1.385      0.9928      0.4537       0.000    
  44    10.00       9.911       9.850       9.801       9.738       9.679       9.595       9.443       9.248       9.035    
        8.844       8.602       8.285       8.011       7.788       7.525       7.257       7.006       6.800       6.662    
        6.565       6.483       6.408       6.330       6.229       6.100       5.934       5.768       5.649       5.523    
        5.382       5.203       4.993       4.792       4.580       4.259       3.842       3.487       3.260       3.080    
        2.903       2.662       2.369       2.107       1.845       1.607       1.362      0.8964      0.4122       0.000    
  45    10.00       9.921       9.864       9.800       9.739       9.688       9.554       9.375       9.179       8.996    
        8.838       8.517       8.188       7.988       7.751       7.460       7.170       6.938       6.770       6.659    
        6.583       6.505       6.423       6.331       6.218       6.092       5.952       5.823       5.718       5.587    
        5.424       5.239       5.022       4.769       4.515       4.169       3.778       3.498       3.325       3.140    
        2.904       2.628       2.377       2.138       1.906       1.669       1.272      0.7966      0.4009       0.000    
  46    10.00       9.936       9.876       9.801       9.731       9.631       9.486       9.351       9.187       8.991    
        8.732       8.427       8.163       7.909       7.658       7.376       7.107       6.934       6.796       6.689    
        6.613       6.537       6.434       6.318       6.209       6.102       5.991       5.873       5.767       5.651    
        5.504       5.309       5.062       4.762       4.400       4.040       3.750       3.553       3.372       3.179    
        2.900       2.606       2.356       2.167       1.945       1.635       1.185      0.7610      0.3752       0.000    
  47    10.00       9.948       9.891       9.817       9.698       9.567       9.443       9.337       9.187       8.929    
        8.618       8.339       8.110       7.898       7.630       7.324       7.086       6.923       6.812       6.722    
        6.640       6.552       6.444       6.322       6.215       6.130       6.037       5.921       5.799       5.685    
        5.558       5.394       5.067       4.647       4.293       4.034       3.790       3.620       3.460       3.193    
        2.853       2.542       2.315       2.184       1.939       1.560       1.120      0.7342      0.3709       0.000    
  48    10.00       9.953       9.895       9.785       9.663       9.550       9.425       9.318       9.166       8.876    
        8.537       8.303       8.115       7.856       7.544       7.268       7.089       6.924       6.814       6.744    
        6.661       6.555       6.438       6.327       6.238       6.171       6.088       5.959       5.818       5.696    
        5.561       5.365       5.025       4.675       4.360       4.073       3.856       3.682       3.478       3.138    
        2.772       2.532       2.352       2.121       1.798       1.463       1.085      0.7396      0.3916       0.000    
  49    10.00       9.951       9.863       9.757       9.665       9.544       9.422       9.309       9.118       8.810    
        8.508       8.284       8.049       7.787       7.552       7.295       7.046       6.892       6.825       6.760    
        6.681       6.559       6.424       6.326       6.259       6.209       6.114       5.965       5.816       5.706    
        5.561       5.302       5.002       4.754       4.490       4.174       3.894       3.679       3.438       3.074    
        2.779       2.568       2.320       1.986       1.700       1.397       1.068      0.7519      0.3829       0.000    
  50    10.00       9.939       9.842       9.745       9.671       9.557       9.423       9.279       9.072       8.830    
        8.523       8.223       7.979       7.770       7.581       7.292       7.009       6.893       6.833       6.770    
        6.695       6.558       6.413       6.324       6.271       6.225       6.119       5.959       5.817       5.704    
        5.545       5.274       5.042       4.830       4.545       4.231       3.947       3.661       3.314       2.992    
        2.836       2.614       2.251       1.915       1.675       1.387       1.100      0.7344      0.3017       0.000    

 HEAD WILL BE SAVED ON UNIT   51 AT END OF TIME STEP  76, STRESS PERIOD    2

 DRAWDOWN WILL BE SAVED ON UNIT   52 AT END OF TIME STEP  76, STRESS PERIOD    2
1
  VOLUMETRIC BUDGET FOR ENTIRE MODEL AT END OF TIME STEP 76 IN STRESS PERIOD   2
  ------------------------------------------------------------------------------

     CUMULATIVE VOLUMES      L**3       RATES FOR THIS TIME STEP      L**3/T
     ------------------                 ------------------------

           IN:                                      IN:
           ---                                      ---
             STORAGE =       35720.4180               STORAGE =         408.7568
       CONSTANT HEAD =       43743.5039         CONSTANT HEAD =         624.6941
               WELLS =           0.0000                 WELLS =           0.0000

            TOTAL IN =       79463.9219              TOTAL IN =        1033.4509

          OUT:                                     OUT:
          ----                                     ----
             STORAGE =       9.3745E-03               STORAGE =           0.0000
       CONSTANT HEAD =       41463.8906         CONSTANT HEAD =         533.4507
               WELLS =       38000.0000                 WELLS =         500.0000

           TOTAL OUT =       79463.8984             TOTAL OUT =        1033.4507

            IN - OUT =       2.3438E-02              IN - OUT =       2.4414E-04

 PERCENT DISCREPANCY =           0.00     PERCENT DISCREPANCY =           0.00






          TIME SUMMARY AT END OF TIME STEP  76 IN STRESS PERIOD    2
                    SECONDS     MINUTES      HOURS       DAYS        YEARS
                    -----------------------------------------------------------
   TIME STEP LENGTH  86400.      1440.0      24.000      1.0000     2.73785E-03
 STRESS PERIOD TIME 6.56640E+06 1.09440E+05  1824.0      76.000     0.20808    
         TOTAL TIME 6.65280E+06 1.10880E+05  1848.0      77.000     0.21081    
1
 
 SOLVING FOR HEAD 

 OUTPUT CONTROL FOR STRESS PERIOD    2   TIME STEP  77
    SAVE HEAD FOR ALL LAYERS
    SAVE DRAWDOWN FOR ALL LAYERS
    SAVE BUDGET
    PRINT HEAD FOR ALL LAYERS
    PRINT BUDGET
 UBDSV1 SAVING "         STORAGE" ON UNIT  53 AT TIME STEP 77, STRESS PERIOD   2
 UBDSV2 SAVING "   CONSTANT HEAD" ON UNIT  53 AT TIME STEP 77, STRESS PERIOD   2
 UBDSV1 SAVING "FLOW RIGHT FACE " ON UNIT  53 AT TIME STEP 77, STRESS PERIOD   2
 UBDSV1 SAVING "FLOW FRONT FACE " ON UNIT  53 AT TIME STEP 77, STRESS PERIOD   2
1
              HEAD IN LAYER   1 AT END OF TIME STEP  77 IN STRESS PERIOD    2
  ---------------------------------------------------------------------------

            1           2           3           4           5           6           7           8           9          10
           11          12          13          14          15          16          17          18          19          20
           21          22          23          24          25          26          27          28          29          30
           31          32          33          34          35          36          37          38          39          40
           41          42          43          44          45          46          47          48          49          50
 ........................................................................................................................
   1    10.00       9.953       9.888       9.824       9.770       9.705       9.640       9.573       9.483       9.409    
        9.366       9.322       9.274       9.227       9.151       9.067       8.976       8.905       8.872       8.837    
        8.795       8.758       8.721       8.674       8.609       8.498       8.363       8.233       8.084       7.936    
        7.727       7.394       7.003       6.591       6.129       5.703       5.342       5.008       4.552       4.056    
        3.636       3.221       2.648       2.106       1.726       1.345       1.026      0.8197      0.5437       0.000    
   2    10.00       9.952       9.894       9.830       9.773       9.712       9.641       9.553       9.466       9.409    
        9.370       9.331       9.294       9.235       9.147       9.061       8.977       8.907       8.873       8.833    
        8.789       8.761       8.732       8.682       8.608       8.501       8.365       8.229       8.090       7.943    
        7.716       7.372       6.960       6.493       6.028       5.617       5.295       4.967       4.504       4.039    
        3.615       3.116       2.600       2.171       1.794       1.440       1.076      0.7785      0.4157       0.000    
   3    10.00       9.948       9.892       9.833       9.775       9.705       9.617       9.533       9.477       9.426    
        9.381       9.347       9.310       9.254       9.166       9.059       8.970       8.913       8.870       8.830    
        8.793       8.763       8.733       8.670       8.591       8.482       8.353       8.250       8.102       7.928    
        7.635       7.235       6.793       6.340       5.913       5.533       5.246       4.907       4.405       3.953    
        3.601       3.148       2.675       2.264       1.873       1.516       1.085      0.6678      0.2937       0.000    
   4    10.00       9.952       9.895       9.831       9.759       9.679       9.594       9.532       9.484       9.436    
        9.397       9.368       9.327       9.267       9.186       9.068       8.970       8.916       8.870       8.832    
        8.790       8.754       8.716       8.649       8.567       8.462       8.336       8.220       8.104       7.885    
        7.504       7.011       6.538       6.191       5.875       5.509       5.141       4.711       4.287       3.960    
        3.648       3.249       2.777       2.372       1.963       1.531       1.035      0.5928      0.2762       0.000    
   5    10.00       9.948       9.888       9.815       9.740       9.666       9.592       9.539       9.490       9.448    
        9.414       9.383       9.336       9.265       9.171       9.063       8.979       8.920       8.872       8.819    
        8.770       8.734       8.685       8.617       8.540       8.418       8.292       8.193       8.077       7.793    
        7.289       6.744       6.353       6.091       5.807       5.440       5.020       4.596       4.299       4.023    
        3.744       3.334       2.844       2.491       2.076       1.511      0.9417      0.5471      0.2752       0.000    
   6    10.00       9.936       9.865       9.807       9.737       9.660       9.597       9.549       9.499       9.460    
        9.429       9.391       9.330       9.247       9.166       9.076       8.986       8.913       8.851       8.790    
        8.747       8.707       8.662       8.590       8.476       8.359       8.265       8.157       7.961       7.549    
        6.984       6.489       6.191       5.997       5.768       5.364       4.910       4.579       4.362       4.123    
        3.854       3.486       3.001       2.564       2.050       1.445      0.8444      0.4811      0.2689       0.000    
   7    10.00       9.917       9.850       9.794       9.727       9.672       9.612       9.562       9.520       9.479    
        9.437       9.383       9.308       9.228       9.154       9.081       8.979       8.880       8.813       8.764    
        8.722       8.678       8.632       8.534       8.417       8.324       8.221       8.043       7.706       7.180    
        6.648       6.263       6.082       5.933       5.640       5.238       4.942       4.659       4.427       4.264    
        3.994       3.615       3.097       2.532       1.899       1.204      0.7078      0.4885      0.2474       0.000    
   8    10.00       9.912       9.850       9.790       9.730       9.680       9.629       9.581       9.540       9.500    
        9.440       9.361       9.282       9.212       9.142       9.051       8.930       8.837       8.786       8.739    
        8.689       8.652       8.575       8.469       8.364       8.253       8.057       7.774       7.310       6.854    
        6.462       6.165       6.030       5.847       5.515       5.207       4.964       4.757       4.575       4.384    
        4.106       3.640       3.043       2.398       1.677       1.087      0.7490      0.4792      0.2208       0.000    
   9    10.00       9.916       9.846       9.787       9.744       9.702       9.652       9.605       9.558       9.512    
        9.435       9.337       9.256       9.184       9.101       8.998       8.888       8.806       8.754       8.704    
        8.659       8.599       8.491       8.392       8.283       8.126       7.838       7.412       6.954       6.629    
        6.323       6.110       5.960       5.716       5.412       5.177       5.006       4.853       4.698       4.491    
        4.147       3.662       3.028       2.308       1.644       1.126      0.7641      0.4754      0.2357       0.000    
  10    10.00       9.914       9.844       9.795       9.756       9.716       9.672       9.631       9.575       9.502    
        9.408       9.310       9.230       9.151       9.063       8.943       8.834       8.768       8.722       8.673    
        8.626       8.526       8.410       8.300       8.147       7.908       7.474       7.015       6.660       6.417    
        6.238       6.067       5.862       5.613       5.360       5.187       5.063       4.937       4.765       4.525    
        4.155       3.625       2.947       2.305       1.781       1.289      0.8185      0.5050      0.2662       0.000    
  11    10.00       9.903       9.848       9.807       9.769       9.733       9.694       9.638       9.560       9.477    
        9.383       9.286       9.210       9.104       8.982       8.878       8.800       8.738       8.693       8.638    
        8.553       8.423       8.255       8.092       7.822       7.464       7.081       6.782       6.500       6.330    
        6.180       5.953       5.723       5.540       5.375       5.253       5.131       4.969       4.765       4.484    
        4.137       3.670       2.986       2.401       1.937       1.466      0.9440      0.5009      0.2011       0.000    
  12    10.00       9.911       9.857       9.814       9.782       9.744       9.701       9.625       9.531       9.446    
        9.356       9.260       9.157       9.028       8.928       8.838       8.757       8.706       8.646       8.561    
        8.393       8.170       7.934       7.689       7.355       7.083       6.887       6.578       6.350       6.220    
        6.062       5.850       5.672       5.521       5.418       5.307       5.163       4.980       4.736       4.442    
        4.102       3.646       3.020       2.499       2.080       1.572      0.9945      0.4746      0.1578       0.000    
  13    10.00       9.931       9.881       9.834       9.792       9.749       9.685       9.590       9.493       9.409    
        9.314       9.217       9.107       8.975       8.860       8.770       8.713       8.646       8.562       8.357    
        8.050       7.780       7.525       7.219       6.960       6.841       6.598       6.319       6.206       6.101    
        5.933       5.753       5.629       5.531       5.448       5.346       5.181       4.954       4.717       4.414    
        4.077       3.614       2.969       2.482       2.094       1.539      0.9266      0.4295      0.1241       0.000    
  14    10.00       9.949       9.904       9.854       9.804       9.737       9.643       9.544       9.456       9.360    
        9.266       9.176       9.046       8.897       8.792       8.721       8.625       8.522       8.318       7.957    
        7.630       7.391       7.057       6.809       6.695       6.562       6.311       6.153       6.038       5.936    
        5.797       5.693       5.622       5.547       5.462       5.359       5.174       4.925       4.671       4.364    
        4.003       3.444       2.836       2.444       1.968       1.434      0.9131      0.3920      0.1009       0.000    
  15    10.00       9.960       9.914       9.863       9.805       9.704       9.588       9.501       9.414       9.321    
        9.249       9.144       8.972       8.809       8.713       8.585       8.455       8.323       7.979       7.557    
        7.290       6.951       6.648       6.558       6.491       6.315       6.116       5.961       5.880       5.808    
        5.730       5.674       5.623       5.561       5.472       5.345       5.131       4.849       4.582       4.299    
        3.908       3.364       2.841       2.313       1.736       1.258      0.7847      0.3452      0.1036       0.000    
  16    10.00       9.970       9.925       9.865       9.773       9.649       9.550       9.478       9.400       9.304    
        9.207       9.056       8.856       8.700       8.559       8.407       8.319       8.051       7.551       7.166    
        6.898       6.568       6.458       6.406       6.277       6.055       5.896       5.827       5.807       5.761    
        5.706       5.662       5.621       5.555       5.448       5.290       5.031       4.776       4.567       4.265    
        3.820       3.234       2.631       2.042       1.552       1.079      0.6683      0.3275      0.1105       0.000    
  17    10.00       9.970       9.922       9.843       9.729       9.604       9.521       9.455       9.367       9.259    
        9.096       8.903       8.723       8.553       8.379       8.233       8.013       7.565       7.102       6.838    
        6.577       6.379       6.293       6.169       5.967       5.804       5.764       5.761       5.752       5.714    
        5.673       5.642       5.605       5.541       5.385       5.169       4.948       4.770       4.573       4.192    
        3.597       2.998       2.421       1.843       1.328      0.8728      0.5598      0.2926      0.1203       0.000    
  18    10.00       9.963       9.906       9.811       9.668       9.568       9.502       9.412       9.310       9.160    
        8.962       8.791       8.610       8.380       8.151       7.909       7.589       7.137       6.794       6.565    
        6.355       6.190       6.060       5.881       5.746       5.705       5.697       5.697       5.680       5.654    
        5.634       5.612       5.570       5.460       5.296       5.114       4.932       4.774       4.496       3.985    
        3.377       2.738       2.118       1.643       1.232      0.8181      0.4808      0.2420      0.1160       0.000    
  19    10.00       9.954       9.891       9.753       9.610       9.551       9.477       9.366       9.240       9.078    
        8.898       8.736       8.473       8.123       7.851       7.604       7.219       6.811       6.583       6.408    
        6.192       5.992       5.849       5.713       5.648       5.636       5.633       5.616       5.590       5.586    
        5.579       5.562       5.499       5.394       5.259       5.085       4.921       4.692       4.215       3.683    
        3.190       2.528       1.939       1.560       1.152      0.7382      0.4343      0.2465      0.1263       0.000    
  20    10.00       9.944       9.838       9.696       9.592       9.528       9.447       9.328       9.187       9.040    
        8.854       8.607       8.214       7.868       7.627       7.323       6.943       6.722       6.515       6.273    
        6.036       5.857       5.709       5.614       5.567       5.544       5.515       5.510       5.497       5.506    
        5.511       5.496       5.431       5.336       5.199       5.049       4.844       4.426       3.908       3.482    
        2.946       2.334       1.892       1.526       1.114      0.6555      0.3796      0.2567      0.1323       0.000    
  21    10.00       9.906       9.793       9.674       9.572       9.504       9.417       9.277       9.137       8.998    
        8.748       8.371       7.972       7.712       7.444       7.125       6.845       6.636       6.387       6.132    
        5.906       5.731       5.602       5.502       5.436       5.386       5.370       5.379       5.383       5.401    
        5.422       5.398       5.333       5.246       5.109       4.945       4.624       4.183       3.775       3.257    
        2.747       2.264       1.891       1.520      0.9393      0.5314      0.3844      0.2901      0.1391       0.000    
  22    10.00       9.881       9.746       9.639       9.558       9.476       9.353       9.223       9.099       8.906    
        8.586       8.160       7.845       7.611       7.312       6.985       6.718       6.498       6.272       6.031    
        5.807       5.622       5.449       5.295       5.208       5.189       5.206       5.220       5.259       5.283    
        5.307       5.280       5.228       5.137       5.003       4.840       4.513       4.091       3.557       3.055    
        2.685       2.299       1.850       1.228      0.7340      0.5301      0.4031      0.2685      9.9350E-02   0.000    
  23    10.00       9.847       9.714       9.630       9.544       9.422       9.287       9.191       9.034       8.792    
        8.419       8.056       7.829       7.537       7.150       6.826       6.617       6.439       6.227       5.969    
        5.733       5.517       5.269       4.979       4.767       4.810       4.946       5.035       5.116       5.170    
        5.194       5.182       5.135       5.051       4.926       4.743       4.414       3.892       3.356       3.002    
        2.661       2.174       1.527      0.9922      0.7230      0.5410      0.3872      0.2286      9.0979E-02   0.000    
  24    10.00       9.823       9.727       9.626       9.503       9.376       9.273       9.165       9.014       8.695    
        8.346       8.078       7.821       7.432       7.008       6.776       6.599       6.424       6.184       5.941    
        5.731       5.457       5.060       4.511       3.841       4.113       4.519       4.802       4.970       5.057    
        5.102       5.097       5.063       4.971       4.830       4.599       4.181       3.686       3.284       2.916    
        2.498       1.953       1.373      0.9632      0.7250      0.5276      0.3536      0.2478      0.1217       0.000    
  25    10.00       9.843       9.745       9.617       9.490       9.373       9.270       9.172       8.946       8.636    
        8.367       8.096       7.760       7.334       7.019       6.811       6.611       6.400       6.181       5.972    
        5.730       5.468       4.901       3.857       2.001       3.379       4.124       4.568       4.843       4.988    
        5.042       5.044       5.001       4.873       4.678       4.360       3.964       3.575       3.230       2.799    
        2.293       1.772       1.283      0.9556      0.7521      0.5486      0.3728      0.2597      0.1616       0.000    
  26    10.00       9.864       9.769       9.635       9.498       9.392       9.282       9.137       8.914       8.698    
        8.446       8.075       7.666       7.321       7.083       6.879       6.647       6.387       6.175       6.000    
        5.799       5.539       5.049       4.280       3.428       3.781       4.230       4.560       4.815       4.972    
        5.018       5.008       4.932       4.777       4.560       4.257       3.818       3.447       3.122       2.596    
        2.022       1.564       1.271       1.044      0.8112      0.5925      0.4065      0.2822      0.1649       0.000    
  27    10.00       9.892       9.774       9.654       9.536       9.410       9.289       9.142       8.958       8.761    
        8.444       8.028       7.668       7.382       7.181       6.946       6.645       6.374       6.208       6.064    
        5.906       5.666       5.293       4.838       4.375       4.340       4.509       4.720       4.908       5.001    
        5.015       4.990       4.899       4.728       4.473       4.061       3.645       3.335       2.838       2.280    
        1.832       1.536       1.316       1.116      0.8871      0.6469      0.4418      0.3107      0.1961       0.000    
  28    10.00       9.899       9.803       9.694       9.578       9.446       9.311       9.170       9.010       8.780    
        8.411       8.049       7.735       7.454       7.240       7.011       6.764       6.502       6.266       6.116    
        5.990       5.818       5.577       5.245       4.959       4.790       4.821       4.955       5.020       5.047    
        5.031       4.983       4.869       4.649       4.309       3.877       3.514       3.074       2.552       2.152    
        1.831       1.579       1.363       1.156      0.9324      0.7061      0.5014      0.3540      0.2023       0.000    
  29    10.00       9.907       9.812       9.727       9.614       9.495       9.363       9.218       9.043       8.737    
        8.393       8.087       7.789       7.552       7.310       7.066       6.842       6.631       6.403       6.205    
        6.069       5.936       5.776       5.576       5.305       5.169       5.150       5.156       5.159       5.122    
        5.061       4.963       4.824       4.538       4.115       3.726       3.352       2.889       2.468       2.173    
        1.911       1.635       1.390       1.191      0.9893      0.7472      0.5301      0.3701      0.2053       0.000    
  30    10.00       9.919       9.841       9.767       9.666       9.548       9.430       9.265       9.031       8.753    
        8.406       8.074       7.832       7.595       7.366       7.145       6.964       6.767       6.545       6.334    
        6.166       6.054       5.917       5.781       5.632       5.511       5.468       5.373       5.311       5.213    
        5.083       4.913       4.708       4.402       4.061       3.691       3.289       2.851       2.528       2.258    
        1.947       1.669       1.456       1.228      0.9885      0.7738      0.5654      0.3933      0.2210       0.000    
  31    10.00       9.936       9.872       9.801       9.726       9.631       9.498       9.295       9.029       8.736    
        8.403       8.107       7.885       7.654       7.441       7.239       7.057       6.904       6.681       6.469    
        6.315       6.194       6.087       5.982       5.906       5.795       5.673       5.567       5.435       5.282    
        5.073       4.845       4.629       4.372       4.043       3.649       3.236       2.873       2.643       2.386    
        2.040       1.734       1.490       1.259       1.036      0.8149      0.5996      0.4142      0.2145       0.000    
  32    10.00       9.945       9.899       9.838       9.767       9.678       9.537       9.304       9.064       8.786    
        8.444       8.169       7.960       7.723       7.499       7.334       7.175       6.993       6.815       6.606    
        6.447       6.319       6.224       6.138       6.049       5.958       5.815       5.682       5.522       5.311    
        5.064       4.827       4.593       4.342       4.017       3.660       3.335       3.023       2.759       2.466    
        2.146       1.842       1.584       1.318       1.075      0.8871      0.6620      0.4069      0.1818       0.000    
  33    10.00       9.954       9.918       9.866       9.794       9.700       9.518       9.290       9.096       8.848    
        8.535       8.275       8.030       7.766       7.570       7.429       7.291       7.105       6.908       6.731    
        6.554       6.425       6.310       6.213       6.133       6.042       5.902       5.725       5.557       5.353    
        5.102       4.878       4.630       4.314       4.007       3.687       3.422       3.176       2.878       2.554    
        2.276       1.988       1.704       1.429       1.172      0.9620      0.7094      0.4096      0.1781       0.000    
  34    10.00       9.962       9.935       9.891       9.798       9.661       9.494       9.336       9.136       8.892    
        8.627       8.345       8.073       7.817       7.654       7.538       7.390       7.213       6.993       6.823    
        6.667       6.508       6.384       6.285       6.205       6.096       5.936       5.767       5.583       5.348    
        5.127       4.938       4.698       4.389       4.077       3.777       3.526       3.283       2.973       2.677    
        2.427       2.150       1.839       1.564       1.303       1.062      0.7600      0.4615      0.2420       0.000    
  35    10.00       9.968       9.935       9.874       9.761       9.628       9.509       9.373       9.212       8.951    
        8.663       8.385       8.112       7.899       7.751       7.629       7.473       7.287       7.076       6.876    
        6.728       6.581       6.455       6.360       6.272       6.160       5.982       5.780       5.565       5.321    
        5.151       4.960       4.711       4.484       4.220       3.901       3.620       3.413       3.117       2.798    
        2.556       2.272       1.960       1.689       1.417       1.153      0.8717      0.5778      0.2858       0.000    
  36    10.00       9.962       9.909       9.843       9.738       9.615       9.517       9.402       9.230       8.981    
        8.671       8.379       8.185       8.019       7.874       7.719       7.536       7.351       7.132       6.883    
        6.721       6.610       6.498       6.418       6.328       6.189       5.994       5.771       5.510       5.282    
        5.132       4.976       4.756       4.534       4.311       4.025       3.742       3.518       3.253       2.904    
        2.638       2.321       2.009       1.802       1.538       1.243      0.9618      0.6546      0.3203       0.000    
  37    10.00       9.942       9.887       9.821       9.719       9.613       9.501       9.393       9.237       8.951    
        8.631       8.407       8.290       8.132       7.953       7.801       7.583       7.357       7.091       6.842    
        6.724       6.631       6.523       6.438       6.336       6.170       5.972       5.691       5.448       5.290    
        5.152       4.980       4.763       4.585       4.357       4.086       3.863       3.647       3.348       2.966    
        2.616       2.318       2.101       1.885       1.621       1.342       1.060      0.7220      0.3965       0.000    
  38    10.00       9.935       9.865       9.796       9.708       9.607       9.491       9.374       9.198       8.932    
        8.692       8.513       8.364       8.222       8.033       7.795       7.555       7.301       7.008       6.834    
        6.737       6.620       6.516       6.442       6.330       6.139       5.852       5.584       5.449       5.325    
        5.179       4.996       4.796       4.619       4.395       4.147       3.963       3.744       3.362       2.940    
        2.637       2.387       2.171       1.949       1.715       1.431       1.150      0.8350      0.4127       0.000    
  39    10.00       9.917       9.849       9.788       9.704       9.591       9.470       9.350       9.186       8.968    
        8.781       8.644       8.478       8.288       8.026       7.736       7.468       7.176       6.964       6.846    
        6.710       6.576       6.496       6.427       6.321       6.072       5.775       5.604       5.478       5.349    
        5.185       5.010       4.817       4.638       4.468       4.263       4.021       3.755       3.379       2.985    
        2.664       2.407       2.237       2.051       1.787       1.506       1.221      0.8690      0.4072       0.000    
  40    10.00       9.908       9.844       9.782       9.697       9.582       9.464       9.346       9.200       9.020    
        8.866       8.747       8.551       8.265       7.944       7.654       7.371       7.118       6.959       6.820    
        6.665       6.546       6.475       6.393       6.252       6.032       5.824       5.649       5.505       5.372    
        5.211       5.022       4.838       4.688       4.537       4.329       4.050       3.772       3.389       2.967    
        2.666       2.462       2.275       2.115       1.838       1.531       1.270      0.8713      0.4057       0.000    
  41    10.00       9.917       9.843       9.770       9.679       9.588       9.490       9.381       9.237       9.074    
        8.927       8.787       8.544       8.211       7.879       7.607       7.328       7.084       6.931       6.781    
        6.627       6.521       6.445       6.347       6.200       6.031       5.889       5.717       5.537       5.381    
        5.226       5.053       4.876       4.745       4.585       4.377       4.098       3.713       3.274       2.948    
        2.730       2.532       2.338       2.117       1.828       1.534       1.311      0.9281      0.4209       0.000    
  42    10.00       9.918       9.834       9.770       9.703       9.620       9.515       9.392       9.270       9.146    
        8.964       8.730       8.449       8.133       7.827       7.577       7.305       7.065       6.901       6.733    
        6.589       6.495       6.413       6.323       6.186       6.066       5.944       5.751       5.550       5.408    
        5.280       5.091       4.901       4.773       4.625       4.403       4.060       3.606       3.203       2.960    
        2.796       2.619       2.372       2.077       1.800       1.570       1.339      0.9788      0.4830       0.000    
  43    10.00       9.911       9.841       9.786       9.733       9.653       9.551       9.435       9.301       9.114    
        8.885       8.646       8.383       8.054       7.777       7.547       7.302       7.062       6.854       6.698    
        6.566       6.472       6.400       6.326       6.208       6.082       5.959       5.760       5.584       5.479    
        5.322       5.118       4.934       4.803       4.629       4.342       3.945       3.515       3.221       3.035    
        2.860       2.656       2.354       2.051       1.806       1.584       1.385      0.9926      0.4536       0.000    
  44    10.00       9.911       9.850       9.801       9.737       9.678       9.594       9.442       9.247       9.034    
        8.842       8.600       8.283       8.008       7.786       7.522       7.254       7.003       6.797       6.660    
        6.562       6.480       6.406       6.328       6.226       6.097       5.932       5.766       5.646       5.520    
        5.380       5.201       4.991       4.790       4.579       4.257       3.840       3.486       3.259       3.079    
        2.902       2.661       2.369       2.106       1.844       1.606       1.362      0.8962      0.4121       0.000    
  45    10.00       9.921       9.864       9.800       9.739       9.688       9.553       9.374       9.178       8.995    
        8.837       8.516       8.186       7.986       7.749       7.458       7.168       6.935       6.767       6.656    
        6.581       6.503       6.421       6.328       6.216       6.090       5.949       5.821       5.716       5.585    
        5.422       5.237       5.020       4.767       4.514       4.168       3.777       3.497       3.324       3.139    
        2.903       2.627       2.377       2.138       1.906       1.668       1.272      0.7965      0.4008       0.000    
  46    10.00       9.936       9.876       9.801       9.731       9.631       9.486       9.350       9.186       8.990    
        8.730       8.425       8.161       7.908       7.656       7.374       7.105       6.932       6.794       6.686    
        6.610       6.535       6.431       6.315       6.206       6.100       5.988       5.870       5.764       5.649    
        5.502       5.307       5.061       4.760       4.399       4.039       3.749       3.552       3.371       3.178    
        2.899       2.605       2.355       2.166       1.944       1.635       1.185      0.7608      0.3751       0.000    
  47    10.00       9.948       9.891       9.817       9.698       9.566       9.442       9.336       9.186       8.928    
        8.617       8.337       8.108       7.896       7.628       7.322       7.084       6.920       6.809       6.720    
        6.638       6.549       6.441       6.319       6.212       6.128       6.035       5.918       5.796       5.683    
        5.556       5.392       5.066       4.645       4.291       4.032       3.789       3.619       3.459       3.192    
        2.852       2.541       2.315       2.184       1.939       1.560       1.120      0.7341      0.3709       0.000    
  48    10.00       9.953       9.895       9.785       9.663       9.549       9.425       9.317       9.165       8.875    
        8.536       8.301       8.114       7.854       7.542       7.266       7.087       6.922       6.812       6.742    
        6.659       6.553       6.436       6.324       6.236       6.168       6.086       5.957       5.815       5.693    
        5.559       5.363       5.023       4.674       4.358       4.072       3.855       3.681       3.477       3.137    
        2.772       2.532       2.352       2.120       1.798       1.462       1.085      0.7394      0.3915       0.000    
  49    10.00       9.951       9.863       9.757       9.665       9.543       9.422       9.308       9.117       8.809    
        8.507       8.282       8.048       7.786       7.550       7.293       7.043       6.890       6.823       6.758    
        6.679       6.557       6.421       6.324       6.257       6.206       6.112       5.963       5.814       5.704    
        5.559       5.300       5.000       4.753       4.488       4.173       3.893       3.678       3.437       3.073    
        2.778       2.568       2.319       1.985       1.700       1.397       1.067      0.7517      0.3828       0.000    
  50    10.00       9.938       9.841       9.745       9.671       9.557       9.422       9.278       9.072       8.829    
        8.522       8.221       7.977       7.768       7.579       7.290       7.007       6.890       6.831       6.768    
        6.692       6.555       6.410       6.322       6.268       6.222       6.116       5.957       5.815       5.702    
        5.543       5.272       5.041       4.829       4.543       4.230       3.946       3.660       3.313       2.991    
        2.835       2.614       2.250       1.915       1.675       1.386       1.100      0.7343      0.3016       0.000    

 HEAD WILL BE SAVED ON UNIT   51 AT END OF TIME STEP  77, STRESS PERIOD    2

 DRAWDOWN WILL BE SAVED ON UNIT   52 AT END OF TIME STEP  77, STRESS PERIOD    2
1
  VOLUMETRIC BUDGET FOR ENTIRE MODEL AT END OF TIME STEP 77 IN STRESS PERIOD   2
  ------------------------------------------------------------------------------

     CUMULATIVE VOLUMES      L**3       RATES FOR THIS TIME STEP      L**3/T
     ------------------                 ------------------------

           IN:                                      IN:
           ---                                      ---
             STORAGE =       36127.1484               STORAGE =         406.7317
       CONSTANT HEAD =       44369.9453         CONSTANT HEAD =         626.4420
               WELLS =           0.0000                 WELLS =           0.0000

            TOTAL IN =       80497.0938              TOTAL IN =        1033.1736

          OUT:                                     OUT:
          ----                                     ----
             STORAGE =       9.3745E-03               STORAGE =           0.0000
       CONSTANT HEAD =       41997.0625         CONSTANT HEAD =         533.1735
               WELLS =       38500.0000                 WELLS =         500.0000

           TOTAL OUT =       80497.0703             TOTAL OUT =        1033.1736

            IN - OUT =       2.3438E-02              IN - OUT =           0.0000

 PERCENT DISCREPANCY =           0.00     PERCENT DISCREPANCY =           0.00






          TIME SUMMARY AT END OF TIME STEP  77 IN STRESS PERIOD    2
                    SECONDS     MINUTES      HOURS       DAYS        YEARS
                    -----------------------------------------------------------
   TIME STEP LENGTH  86400.      1440.0      24.000      1.0000     2.73785E-03
 STRESS PERIOD TIME 6.65280E+06 1.10880E+05  1848.0      77.000     0.21081    
         TOTAL TIME 6.73920E+06 1.12320E+05  1872.0      78.000     0.21355    
1
 
 SOLVING FOR HEAD 

 OUTPUT CONTROL FOR STRESS PERIOD    2   TIME STEP  78
    SAVE HEAD FOR ALL LAYERS
    SAVE DRAWDOWN FOR ALL LAYERS
    SAVE BUDGET
    PRINT HEAD FOR ALL LAYERS
    PRINT BUDGET
 UBDSV1 SAVING "         STORAGE" ON UNIT  53 AT TIME STEP 78, STRESS PERIOD   2
 UBDSV2 SAVING "   CONSTANT HEAD" ON UNIT  53 AT TIME STEP 78, STRESS PERIOD   2
 UBDSV1 SAVING "FLOW RIGHT FACE " ON UNIT  53 AT TIME STEP 78, STRESS PERIOD   2
 UBDSV1 SAVING "FLOW FRONT FACE " ON UNIT  53 AT TIME STEP 78, STRESS PERIOD   2
1
              HEAD IN LAYER   1 AT END OF TIME STEP  78 IN STRESS PERIOD    2
  ---------------------------------------------------------------------------

            1           2           3           4           5           6           7           8           9          10
           11          12          13          14          15          16          17          18          19          20
           21          22          23          24          25          26          27          28          29          30
           31          32          33          34          35          36          37          38          39          40
           41          42          43          44          45          46          47          48          49          50
 ........................................................................................................................
   1    10.00       9.952       9.888       9.823       9.769       9.704       9.639       9.572       9.481       9.408    
        9.364       9.320       9.272       9.225       9.148       9.064       8.973       8.901       8.869       8.834    
        8.791       8.754       8.717       8.671       8.606       8.494       8.360       8.229       8.080       7.932    
        7.723       7.390       6.999       6.587       6.125       5.699       5.338       5.004       4.548       4.053    
        3.633       3.218       2.646       2.104       1.724       1.344       1.025      0.8190      0.5432       0.000    
   2    10.00       9.952       9.894       9.829       9.772       9.711       9.640       9.551       9.464       9.407    
        9.368       9.329       9.292       9.233       9.144       9.058       8.974       8.904       8.870       8.830    
        8.786       8.758       8.728       8.678       8.604       8.497       8.361       8.225       8.086       7.939    
        7.712       7.368       6.956       6.489       6.024       5.613       5.291       4.963       4.501       4.036    
        3.612       3.114       2.598       2.169       1.793       1.439       1.075      0.7778      0.4153       0.000    
   3    10.00       9.947       9.892       9.832       9.774       9.704       9.615       9.531       9.476       9.424    
        9.379       9.345       9.308       9.252       9.164       9.056       8.967       8.910       8.867       8.826    
        8.790       8.760       8.730       8.667       8.587       8.478       8.349       8.246       8.098       7.924    
        7.631       7.230       6.789       6.335       5.908       5.529       5.242       4.903       4.402       3.950    
        3.597       3.146       2.672       2.262       1.871       1.515       1.084      0.6672      0.2935       0.000    
   4    10.00       9.952       9.895       9.830       9.758       9.678       9.592       9.530       9.483       9.434    
        9.395       9.366       9.325       9.264       9.184       9.065       8.967       8.913       8.867       8.829    
        8.787       8.751       8.713       8.646       8.564       8.458       8.332       8.216       8.100       7.880    
        7.499       7.006       6.533       6.186       5.870       5.505       5.137       4.707       4.283       3.956    
        3.644       3.246       2.774       2.370       1.961       1.530       1.034      0.5923      0.2759       0.000    
   5    10.00       9.948       9.888       9.814       9.740       9.665       9.590       9.538       9.488       9.446    
        9.412       9.381       9.334       9.263       9.168       9.060       8.976       8.917       8.869       8.816    
        8.767       8.730       8.682       8.614       8.537       8.414       8.288       8.189       8.073       7.789    
        7.284       6.739       6.348       6.086       5.802       5.435       5.015       4.592       4.295       4.020    
        3.740       3.331       2.841       2.489       2.074       1.510      0.9409      0.5466      0.2750       0.000    
   6    10.00       9.936       9.864       9.806       9.736       9.658       9.596       9.548       9.497       9.459    
        9.427       9.389       9.328       9.245       9.163       9.074       8.983       8.909       8.847       8.786    
        8.743       8.703       8.659       8.586       8.472       8.354       8.261       8.153       7.956       7.544    
        6.979       6.484       6.186       5.991       5.762       5.358       4.905       4.575       4.357       4.119    
        3.850       3.482       2.998       2.561       2.048       1.444      0.8437      0.4807      0.2686       0.000    
   7    10.00       9.917       9.850       9.794       9.726       9.670       9.611       9.561       9.518       9.477    
        9.435       9.381       9.306       9.225       9.152       9.078       8.976       8.876       8.810       8.760    
        8.718       8.674       8.628       8.530       8.413       8.319       8.216       8.038       7.701       7.174    
        6.642       6.257       6.076       5.927       5.634       5.232       4.937       4.654       4.422       4.259    
        3.990       3.612       3.094       2.529       1.897       1.203      0.7072      0.4881      0.2472       0.000    
   8    10.00       9.912       9.850       9.789       9.729       9.679       9.628       9.580       9.539       9.499    
        9.438       9.359       9.280       9.209       9.140       9.048       8.927       8.833       8.782       8.735    
        8.685       8.648       8.571       8.465       8.360       8.249       8.052       7.769       7.304       6.848    
        6.456       6.158       6.023       5.841       5.508       5.201       4.958       4.752       4.570       4.380    
        4.102       3.636       3.040       2.395       1.675       1.086      0.7483      0.4788      0.2206       0.000    
   9    10.00       9.916       9.846       9.786       9.743       9.701       9.651       9.604       9.556       9.510    
        9.433       9.335       9.254       9.182       9.098       8.994       8.885       8.802       8.750       8.700    
        8.655       8.595       8.487       8.388       8.278       8.121       7.832       7.406       6.947       6.622    
        6.315       6.103       5.953       5.710       5.405       5.171       5.000       4.847       4.693       4.486    
        4.142       3.658       3.025       2.306       1.643       1.125      0.7634      0.4750      0.2355       0.000    
  10    10.00       9.914       9.843       9.794       9.756       9.715       9.671       9.629       9.574       9.501    
        9.406       9.307       9.228       9.149       9.060       8.940       8.830       8.764       8.719       8.669    
        8.622       8.522       8.405       8.295       8.142       7.902       7.468       7.008       6.652       6.410    
        6.230       6.060       5.855       5.606       5.353       5.180       5.057       4.931       4.759       4.519    
        4.150       3.621       2.944       2.303       1.779       1.288      0.8178      0.5046      0.2660       0.000    
  11    10.00       9.903       9.848       9.807       9.768       9.732       9.693       9.637       9.558       9.475    
        9.381       9.284       9.207       9.101       8.979       8.874       8.796       8.734       8.689       8.634    
        8.549       8.419       8.250       8.086       7.816       7.457       7.073       6.774       6.492       6.322    
        6.172       5.945       5.715       5.533       5.368       5.246       5.124       4.963       4.759       4.478    
        4.132       3.665       2.982       2.399       1.935       1.465      0.9432      0.5005      0.2010       0.000    
  12    10.00       9.911       9.857       9.813       9.781       9.743       9.700       9.624       9.529       9.444    
        9.354       9.257       9.154       9.025       8.925       8.834       8.753       8.702       8.642       8.557    
        8.389       8.165       7.928       7.682       7.347       7.075       6.879       6.570       6.341       6.212    
        6.054       5.841       5.664       5.513       5.410       5.300       5.156       4.973       4.730       4.437    
        4.097       3.641       3.016       2.496       2.078       1.571      0.9937      0.4742      0.1577       0.000    
  13    10.00       9.931       9.880       9.833       9.791       9.748       9.683       9.589       9.491       9.407    
        9.311       9.214       9.104       8.971       8.856       8.766       8.708       8.642       8.557       8.352    
        8.044       7.773       7.517       7.211       6.951       6.832       6.589       6.309       6.196       6.091    
        5.924       5.744       5.621       5.523       5.440       5.339       5.174       4.947       4.710       4.408    
        4.071       3.609       2.965       2.480       2.092       1.537      0.9259      0.4291      0.1240       0.000    
  14    10.00       9.949       9.903       9.853       9.803       9.736       9.642       9.542       9.454       9.358    
        9.263       9.173       9.042       8.893       8.788       8.716       8.620       8.517       8.312       7.951    
        7.623       7.383       7.048       6.800       6.685       6.552       6.302       6.143       6.028       5.926    
        5.788       5.683       5.613       5.538       5.454       5.351       5.166       4.918       4.664       4.358    
        3.997       3.439       2.833       2.441       1.966       1.433      0.9123      0.3917      0.1009       0.000    
  15    10.00       9.960       9.913       9.863       9.804       9.703       9.587       9.499       9.412       9.319    
        9.246       9.141       8.968       8.805       8.708       8.580       8.450       8.318       7.972       7.549    
        7.281       6.942       6.639       6.548       6.481       6.305       6.105       5.950       5.870       5.798    
        5.720       5.664       5.613       5.551       5.463       5.337       5.123       4.841       4.575       4.293    
        3.903       3.360       2.837       2.310       1.735       1.257      0.7840      0.3449      0.1035       0.000    
  16    10.00       9.970       9.925       9.865       9.773       9.648       9.548       9.476       9.397       9.302    
        9.204       9.052       8.851       8.695       8.554       8.402       8.313       8.044       7.543       7.157    
        6.889       6.558       6.448       6.395       6.267       6.045       5.885       5.816       5.796       5.751    
        5.696       5.652       5.611       5.545       5.438       5.281       5.023       4.769       4.560       4.258    
        3.815       3.230       2.628       2.040       1.550       1.078      0.6677      0.3272      0.1104       0.000    
  17    10.00       9.970       9.921       9.842       9.728       9.602       9.519       9.453       9.364       9.256    
        9.093       8.899       8.719       8.547       8.373       8.227       8.006       7.556       7.093       6.828    
        6.567       6.368       6.282       6.158       5.956       5.792       5.753       5.750       5.741       5.703    
        5.663       5.631       5.595       5.531       5.375       5.160       4.940       4.762       4.566       4.186    
        3.592       2.995       2.418       1.841       1.326      0.8720      0.5593      0.2924      0.1202       0.000    
  18    10.00       9.963       9.906       9.810       9.666       9.566       9.499       9.410       9.307       9.156    
        8.958       8.786       8.604       8.373       8.144       7.901       7.581       7.127       6.784       6.555    
        6.344       6.179       6.048       5.870       5.734       5.694       5.686       5.686       5.669       5.643    
        5.623       5.602       5.559       5.450       5.286       5.105       4.923       4.766       4.489       3.979    
        3.372       2.734       2.116       1.641       1.230      0.8173      0.4804      0.2418      0.1159       0.000    
  19    10.00       9.954       9.891       9.752       9.608       9.549       9.475       9.363       9.236       9.074    
        8.893       8.731       8.467       8.116       7.844       7.595       7.210       6.801       6.572       6.397    
        6.181       5.981       5.837       5.701       5.636       5.624       5.621       5.605       5.579       5.575    
        5.568       5.551       5.489       5.384       5.249       5.075       4.912       4.684       4.208       3.677    
        3.185       2.525       1.936       1.559       1.151      0.7375      0.4339      0.2463      0.1262       0.000    
  20    10.00       9.943       9.837       9.694       9.590       9.525       9.444       9.325       9.184       9.036    
        8.849       8.601       8.207       7.860       7.619       7.313       6.933       6.712       6.504       6.261    
        6.024       5.845       5.697       5.602       5.555       5.532       5.503       5.498       5.485       5.495    
        5.499       5.485       5.420       5.325       5.188       5.039       4.835       4.418       3.902       3.477    
        2.942       2.331       1.890       1.525       1.113      0.6548      0.3792      0.2565      0.1322       0.000    
  21    10.00       9.906       9.792       9.672       9.570       9.502       9.414       9.274       9.133       8.993    
        8.743       8.364       7.964       7.703       7.435       7.115       6.835       6.626       6.376       6.120    
        5.894       5.720       5.590       5.490       5.424       5.374       5.358       5.367       5.371       5.389    
        5.410       5.386       5.321       5.234       5.098       4.935       4.615       4.176       3.769       3.252    
        2.744       2.261       1.889       1.519      0.9384      0.5309      0.3841      0.2898      0.1390       0.000    
  22    10.00       9.881       9.744       9.637       9.556       9.474       9.350       9.220       9.095       8.901    
        8.580       8.152       7.836       7.602       7.302       6.975       6.708       6.487       6.260       6.019    
        5.795       5.610       5.438       5.283       5.196       5.176       5.194       5.208       5.246       5.271    
        5.295       5.268       5.216       5.126       4.992       4.830       4.505       4.084       3.551       3.051    
        2.682       2.296       1.848       1.227      0.7333      0.5297      0.4028      0.2683      9.9269E-02   0.000    
  23    10.00       9.846       9.713       9.628       9.542       9.419       9.284       9.187       9.029       8.786    
        8.412       8.048       7.821       7.528       7.140       6.816       6.606       6.428       6.216       5.957    
        5.721       5.505       5.257       4.966       4.755       4.798       4.934       5.023       5.103       5.158    
        5.181       5.170       5.123       5.039       4.915       4.733       4.405       3.885       3.351       2.997    
        2.658       2.172       1.526      0.9913      0.7224      0.5406      0.3869      0.2284      9.0910E-02   0.000    
  24    10.00       9.822       9.726       9.624       9.501       9.373       9.270       9.162       9.010       8.689    
        8.339       8.070       7.813       7.422       6.997       6.765       6.589       6.413       6.173       5.929    
        5.719       5.445       5.048       4.499       3.828       4.100       4.506       4.789       4.957       5.044    
        5.089       5.085       5.051       4.960       4.819       4.589       4.173       3.680       3.279       2.912    
        2.494       1.951       1.372      0.9624      0.7244      0.5272      0.3533      0.2477      0.1216       0.000    
  25    10.00       9.842       9.743       9.616       9.487       9.370       9.267       9.168       8.941       8.630    
        8.360       8.088       7.752       7.324       7.009       6.800       6.600       6.389       6.170       5.960    
        5.719       5.456       4.889       3.844       1.988       3.366       4.111       4.555       4.830       4.975    
        5.029       5.031       4.989       4.861       4.668       4.351       3.956       3.568       3.225       2.795    
        2.291       1.771       1.282      0.9549      0.7515      0.5482      0.3725      0.2595      0.1615       0.000    
  26    10.00       9.863       9.768       9.633       9.495       9.389       9.279       9.133       8.909       8.693    
        8.440       8.067       7.657       7.311       7.073       6.868       6.636       6.376       6.164       5.988    
        5.788       5.527       5.037       4.267       3.415       3.768       4.216       4.547       4.801       4.959    
        5.005       4.995       4.920       4.766       4.550       4.248       3.811       3.441       3.117       2.592    
        2.020       1.562       1.270       1.043      0.8106      0.5921      0.4063      0.2820      0.1648       0.000    
  27    10.00       9.891       9.773       9.652       9.534       9.408       9.286       9.138       8.954       8.756    
        8.438       8.020       7.659       7.372       7.171       6.936       6.634       6.363       6.197       6.052    
        5.895       5.654       5.281       4.825       4.362       4.327       4.496       4.706       4.895       4.988    
        5.002       4.977       4.887       4.717       4.463       4.053       3.639       3.330       2.834       2.278    
        1.830       1.535       1.315       1.116      0.8864      0.6464      0.4415      0.3105      0.1959       0.000    
  28    10.00       9.899       9.802       9.693       9.576       9.443       9.308       9.166       9.006       8.775    
        8.405       8.041       7.727       7.445       7.231       7.001       6.754       6.491       6.255       6.105    
        5.979       5.807       5.565       5.232       4.947       4.777       4.808       4.942       5.007       5.034    
        5.018       4.971       4.858       4.638       4.300       3.871       3.508       3.070       2.549       2.150    
        1.829       1.578       1.362       1.155      0.9317      0.7057      0.5011      0.3537      0.2022       0.000    
  29    10.00       9.906       9.812       9.726       9.612       9.492       9.361       9.215       9.039       8.732    
        8.387       8.079       7.781       7.543       7.300       7.056       6.831       6.620       6.392       6.193    
        6.057       5.925       5.764       5.564       5.292       5.157       5.138       5.143       5.146       5.109    
        5.048       4.951       4.813       4.529       4.107       3.720       3.348       2.885       2.465       2.171    
        1.909       1.634       1.389       1.190      0.9887      0.7467      0.5298      0.3699      0.2052       0.000    
  30    10.00       9.919       9.841       9.766       9.664       9.546       9.428       9.262       9.027       8.748    
        8.400       8.067       7.824       7.587       7.357       7.136       6.954       6.757       6.534       6.324    
        6.155       6.043       5.905       5.770       5.620       5.498       5.455       5.360       5.299       5.201    
        5.072       4.902       4.699       4.394       4.055       3.686       3.284       2.848       2.526       2.256    
        1.945       1.668       1.455       1.228      0.9879      0.7734      0.5651      0.3931      0.2209       0.000    
  31    10.00       9.936       9.872       9.800       9.725       9.630       9.496       9.292       9.025       8.731    
        8.397       8.100       7.878       7.646       7.433       7.230       7.048       6.894       6.671       6.458    
        6.304       6.183       6.075       5.971       5.895       5.783       5.661       5.555       5.423       5.271    
        5.064       4.836       4.621       4.365       4.037       3.644       3.233       2.870       2.640       2.384    
        2.038       1.733       1.489       1.258       1.035      0.8144      0.5993      0.4139      0.2144       0.000    
  32    10.00       9.944       9.899       9.837       9.766       9.676       9.535       9.302       9.060       8.782    
        8.438       8.162       7.953       7.716       7.491       7.325       7.166       6.984       6.805       6.595    
        6.436       6.308       6.213       6.127       6.039       5.947       5.803       5.671       5.511       5.301    
        5.056       4.819       4.586       4.336       4.012       3.656       3.332       3.020       2.757       2.464    
        2.144       1.841       1.583       1.318       1.074      0.8867      0.6617      0.4067      0.1817       0.000    
  33    10.00       9.953       9.918       9.865       9.793       9.698       9.516       9.287       9.092       8.844    
        8.530       8.269       8.023       7.759       7.562       7.421       7.282       7.096       6.898       6.721    
        6.544       6.415       6.300       6.203       6.123       6.032       5.891       5.716       5.548       5.344    
        5.094       4.872       4.624       4.309       4.003       3.683       3.419       3.173       2.876       2.553    
        2.275       1.987       1.703       1.428       1.171      0.9616      0.7092      0.4095      0.1780       0.000    
  34    10.00       9.962       9.934       9.891       9.798       9.660       9.492       9.334       9.133       8.888    
        8.622       8.339       8.067       7.810       7.647       7.530       7.382       7.204       6.984       6.814    
        6.658       6.498       6.374       6.275       6.196       6.086       5.927       5.759       5.575       5.340    
        5.121       4.932       4.692       4.384       4.073       3.774       3.523       3.281       2.972       2.676    
        2.426       2.149       1.838       1.563       1.303       1.061      0.7598      0.4614      0.2419       0.000    
  35    10.00       9.968       9.935       9.873       9.760       9.627       9.507       9.371       9.210       8.947    
        8.658       8.379       8.106       7.893       7.744       7.622       7.465       7.279       7.068       6.867    
        6.719       6.572       6.446       6.351       6.263       6.152       5.974       5.772       5.558       5.315    
        5.146       4.955       4.707       4.480       4.217       3.899       3.617       3.411       3.115       2.797    
        2.555       2.271       1.959       1.688       1.416       1.152      0.8715      0.5776      0.2858       0.000    
  36    10.00       9.962       9.909       9.842       9.738       9.614       9.515       9.400       9.227       8.977    
        8.667       8.375       8.180       8.013       7.867       7.712       7.529       7.344       7.125       6.876    
        6.714       6.602       6.490       6.410       6.320       6.181       5.986       5.764       5.505       5.277    
        5.128       4.972       4.753       4.531       4.309       4.023       3.740       3.517       3.251       2.903    
        2.637       2.320       2.008       1.801       1.537       1.243      0.9616      0.6545      0.3202       0.000    
  37    10.00       9.942       9.887       9.820       9.719       9.612       9.500       9.391       9.235       8.948    
        8.627       8.403       8.285       8.127       7.947       7.795       7.576       7.350       7.084       6.836    
        6.717       6.624       6.516       6.432       6.329       6.164       5.966       5.686       5.444       5.286    
        5.148       4.977       4.760       4.583       4.355       4.084       3.861       3.646       3.347       2.964    
        2.615       2.317       2.100       1.885       1.620       1.341       1.060      0.7218      0.3964       0.000    
  38    10.00       9.934       9.864       9.795       9.707       9.606       9.490       9.373       9.196       8.929    
        8.689       8.509       8.359       8.217       8.027       7.789       7.549       7.295       7.002       6.828    
        6.731       6.614       6.510       6.437       6.324       6.134       5.847       5.581       5.446       5.322    
        5.176       4.993       4.794       4.617       4.393       4.145       3.961       3.742       3.361       2.939    
        2.636       2.386       2.171       1.948       1.714       1.431       1.150      0.8348      0.4126       0.000    
  39    10.00       9.917       9.849       9.787       9.703       9.590       9.468       9.348       9.184       8.965    
        8.778       8.640       8.474       8.283       8.021       7.731       7.463       7.171       6.959       6.840    
        6.705       6.571       6.492       6.422       6.316       6.067       5.772       5.600       5.475       5.346    
        5.182       5.008       4.815       4.636       4.466       4.261       4.019       3.754       3.378       2.985    
        2.664       2.406       2.236       2.050       1.786       1.505       1.221      0.8688      0.4071       0.000    
  40    10.00       9.908       9.844       9.782       9.696       9.581       9.463       9.345       9.198       9.017    
        8.863       8.744       8.547       8.262       7.940       7.650       7.366       7.114       6.955       6.815    
        6.661       6.542       6.471       6.389       6.248       6.028       5.821       5.646       5.502       5.369    
        5.209       5.019       4.836       4.686       4.535       4.328       4.049       3.771       3.388       2.966    
        2.665       2.461       2.274       2.115       1.838       1.530       1.270      0.8711      0.4056       0.000    
  41    10.00       9.917       9.843       9.769       9.678       9.587       9.489       9.380       9.235       9.072    
        8.925       8.785       8.541       8.207       7.876       7.603       7.324       7.081       6.927       6.778    
        6.624       6.518       6.442       6.344       6.196       6.028       5.886       5.714       5.535       5.378    
        5.224       5.051       4.874       4.743       4.583       4.376       4.096       3.712       3.273       2.947    
        2.729       2.532       2.338       2.116       1.828       1.533       1.310      0.9279      0.4208       0.000    
  42    10.00       9.918       9.834       9.770       9.703       9.619       9.514       9.391       9.269       9.144    
        8.962       8.728       8.447       8.130       7.824       7.574       7.302       7.061       6.897       6.730    
        6.586       6.492       6.410       6.320       6.183       6.063       5.941       5.749       5.548       5.406    
        5.278       5.089       4.899       4.771       4.623       4.401       4.058       3.605       3.202       2.960    
        2.795       2.618       2.372       2.077       1.800       1.570       1.338      0.9786      0.4829       0.000    
  43    10.00       9.911       9.841       9.786       9.732       9.653       9.551       9.434       9.300       9.112    
        8.883       8.644       8.381       8.052       7.775       7.544       7.300       7.059       6.851       6.695    
        6.563       6.470       6.398       6.323       6.206       6.080       5.957       5.758       5.582       5.477    
        5.320       5.116       4.932       4.801       4.627       4.341       3.944       3.514       3.220       3.034    
        2.859       2.656       2.353       2.050       1.805       1.583       1.384      0.9924      0.4535       0.000    
  44    10.00       9.910       9.850       9.800       9.737       9.678       9.594       9.441       9.246       9.032    
        8.841       8.598       8.281       8.006       7.783       7.520       7.252       7.001       6.794       6.657    
        6.559       6.477       6.403       6.325       6.223       6.095       5.929       5.764       5.644       5.518    
        5.378       5.199       4.989       4.789       4.577       4.256       3.839       3.485       3.258       3.078    
        2.901       2.661       2.368       2.106       1.844       1.606       1.362      0.8959      0.4120       0.000    
  45    10.00       9.921       9.864       9.800       9.739       9.687       9.553       9.373       9.177       8.993    
        8.836       8.514       8.185       7.984       7.747       7.456       7.166       6.933       6.765       6.654    
        6.578       6.500       6.418       6.326       6.213       6.087       5.947       5.819       5.714       5.583    
        5.420       5.235       5.018       4.765       4.512       4.166       3.775       3.496       3.323       3.138    
        2.902       2.627       2.376       2.137       1.905       1.668       1.272      0.7963      0.4008       0.000    
  46    10.00       9.936       9.876       9.801       9.731       9.631       9.485       9.350       9.185       8.989    
        8.729       8.424       8.160       7.906       7.654       7.372       7.103       6.930       6.791       6.684    
        6.608       6.532       6.429       6.313       6.204       6.097       5.986       5.868       5.762       5.647    
        5.500       5.305       5.059       4.759       4.397       4.038       3.748       3.551       3.370       3.177    
        2.898       2.605       2.355       2.166       1.944       1.635       1.184      0.7607      0.3750       0.000    
  47    10.00       9.948       9.891       9.817       9.698       9.566       9.441       9.336       9.185       8.927    
        8.616       8.336       8.107       7.894       7.627       7.320       7.082       6.918       6.807       6.717    
        6.635       6.547       6.439       6.317       6.210       6.125       6.033       5.916       5.794       5.681    
        5.553       5.390       5.064       4.643       4.290       4.031       3.788       3.618       3.458       3.191    
        2.852       2.540       2.314       2.183       1.938       1.560       1.120      0.7339      0.3708       0.000    
  48    10.00       9.953       9.895       9.785       9.663       9.549       9.424       9.316       9.164       8.874    
        8.535       8.300       8.112       7.853       7.541       7.264       7.085       6.920       6.810       6.740    
        6.656       6.550       6.434       6.322       6.233       6.166       6.083       5.954       5.813       5.691    
        5.557       5.361       5.021       4.672       4.357       4.071       3.854       3.680       3.476       3.137    
        2.771       2.531       2.351       2.120       1.797       1.462       1.085      0.7393      0.3914       0.000    
  49    10.00       9.951       9.863       9.757       9.665       9.543       9.421       9.308       9.116       8.808    
        8.505       8.281       8.046       7.784       7.548       7.291       7.041       6.888       6.820       6.755    
        6.676       6.554       6.419       6.322       6.254       6.204       6.109       5.961       5.812       5.702    
        5.557       5.298       4.998       4.751       4.487       4.172       3.892       3.677       3.436       3.072    
        2.778       2.567       2.319       1.985       1.699       1.397       1.067      0.7516      0.3828       0.000    
  50    10.00       9.938       9.841       9.744       9.670       9.556       9.422       9.277       9.071       8.828    
        8.521       8.220       7.976       7.766       7.577       7.288       7.004       6.888       6.829       6.766    
        6.690       6.553       6.408       6.320       6.266       6.220       6.114       5.954       5.813       5.700    
        5.541       5.270       5.039       4.827       4.542       4.228       3.945       3.659       3.313       2.990    
        2.834       2.613       2.250       1.914       1.675       1.386       1.100      0.7341      0.3016       0.000    

 HEAD WILL BE SAVED ON UNIT   51 AT END OF TIME STEP  78, STRESS PERIOD    2

 DRAWDOWN WILL BE SAVED ON UNIT   52 AT END OF TIME STEP  78, STRESS PERIOD    2
1
  VOLUMETRIC BUDGET FOR ENTIRE MODEL AT END OF TIME STEP 78 IN STRESS PERIOD   2
  ------------------------------------------------------------------------------

     CUMULATIVE VOLUMES      L**3       RATES FOR THIS TIME STEP      L**3/T
     ------------------                 ------------------------

           IN:                                      IN:
           ---                                      ---
             STORAGE =       36531.8555               STORAGE =         404.7073
       CONSTANT HEAD =       44998.1289         CONSTANT HEAD =         628.1832
               WELLS =           0.0000                 WELLS =           0.0000

            TOTAL IN =       81529.9844              TOTAL IN =        1032.8905

          OUT:                                     OUT:
          ----                                     ----
             STORAGE =       9.3745E-03               STORAGE =           0.0000
       CONSTANT HEAD =       42529.9531         CONSTANT HEAD =         532.8908
               WELLS =       39000.0000                 WELLS =         500.0000

           TOTAL OUT =       81529.9609             TOTAL OUT =        1032.8909

            IN - OUT =       2.3438E-02              IN - OUT =      -3.6621E-04

 PERCENT DISCREPANCY =           0.00     PERCENT DISCREPANCY =           0.00






          TIME SUMMARY AT END OF TIME STEP  78 IN STRESS PERIOD    2
                    SECONDS     MINUTES      HOURS       DAYS        YEARS
                    -----------------------------------------------------------
   TIME STEP LENGTH  86400.      1440.0      24.000      1.0000     2.73785E-03
 STRESS PERIOD TIME 6.73920E+06 1.12320E+05  1872.0      78.000     0.21355    
         TOTAL TIME 6.82560E+06 1.13760E+05  1896.0      79.000     0.21629    
1
 
 SOLVING FOR HEAD 

 OUTPUT CONTROL FOR STRESS PERIOD    2   TIME STEP  79
    SAVE HEAD FOR ALL LAYERS
    SAVE DRAWDOWN FOR ALL LAYERS
    SAVE BUDGET
    PRINT HEAD FOR ALL LAYERS
    PRINT BUDGET
 UBDSV1 SAVING "         STORAGE" ON UNIT  53 AT TIME STEP 79, STRESS PERIOD   2
 UBDSV2 SAVING "   CONSTANT HEAD" ON UNIT  53 AT TIME STEP 79, STRESS PERIOD   2
 UBDSV1 SAVING "FLOW RIGHT FACE " ON UNIT  53 AT TIME STEP 79, STRESS PERIOD   2
 UBDSV1 SAVING "FLOW FRONT FACE " ON UNIT  53 AT TIME STEP 79, STRESS PERIOD   2
1
              HEAD IN LAYER   1 AT END OF TIME STEP  79 IN STRESS PERIOD    2
  ---------------------------------------------------------------------------

            1           2           3           4           5           6           7           8           9          10
           11          12          13          14          15          16          17          18          19          20
           21          22          23          24          25          26          27          28          29          30
           31          32          33          34          35          36          37          38          39          40
           41          42          43          44          45          46          47          48          49          50
 ........................................................................................................................
   1    10.00       9.952       9.887       9.823       9.769       9.703       9.638       9.571       9.480       9.406    
        9.362       9.318       9.270       9.222       9.146       9.061       8.970       8.898       8.866       8.831    
        8.788       8.751       8.714       8.667       8.602       8.490       8.356       8.225       8.076       7.928    
        7.719       7.386       6.995       6.583       6.121       5.695       5.334       5.000       4.545       4.050    
        3.630       3.215       2.644       2.102       1.723       1.343       1.024      0.8184      0.5428       0.000    
   2    10.00       9.952       9.894       9.829       9.771       9.710       9.639       9.550       9.463       9.406    
        9.366       9.327       9.290       9.230       9.142       9.055       8.971       8.901       8.867       8.827    
        8.783       8.755       8.725       8.675       8.600       8.493       8.357       8.222       8.082       7.935    
        7.708       7.364       6.951       6.485       6.020       5.609       5.287       4.959       4.497       4.033    
        3.609       3.111       2.596       2.168       1.791       1.438       1.074      0.7772      0.4150       0.000    
   3    10.00       9.947       9.891       9.832       9.774       9.703       9.614       9.530       9.474       9.422    
        9.377       9.343       9.306       9.250       9.162       9.053       8.965       8.907       8.863       8.823    
        8.787       8.756       8.726       8.663       8.583       8.474       8.345       8.242       8.094       7.920    
        7.627       7.226       6.784       6.331       5.904       5.524       5.238       4.900       4.398       3.946    
        3.594       3.143       2.670       2.260       1.870       1.513       1.084      0.6667      0.2932       0.000    
   4    10.00       9.951       9.894       9.829       9.757       9.677       9.591       9.529       9.481       9.432    
        9.393       9.364       9.323       9.262       9.181       9.062       8.964       8.910       8.863       8.825    
        8.784       8.747       8.709       8.642       8.560       8.454       8.328       8.212       8.096       7.876    
        7.495       7.002       6.528       6.181       5.866       5.500       5.133       4.703       4.279       3.953    
        3.641       3.243       2.772       2.368       1.960       1.528       1.033      0.5918      0.2757       0.000    
   5    10.00       9.948       9.888       9.813       9.739       9.664       9.589       9.536       9.487       9.445    
        9.410       9.380       9.332       9.260       9.166       9.057       8.973       8.914       8.866       8.813    
        8.763       8.727       8.678       8.610       8.533       8.410       8.284       8.185       8.069       7.784    
        7.279       6.734       6.343       6.081       5.797       5.430       5.011       4.587       4.291       4.016    
        3.736       3.328       2.838       2.487       2.072       1.508      0.9400      0.5462      0.2748       0.000    
   6    10.00       9.935       9.864       9.806       9.735       9.657       9.595       9.546       9.496       9.457    
        9.425       9.387       9.326       9.242       9.161       9.071       8.980       8.906       8.844       8.783    
        8.740       8.699       8.655       8.582       8.468       8.350       8.257       8.148       7.952       7.539    
        6.974       6.478       6.180       5.985       5.757       5.353       4.900       4.570       4.353       4.114    
        3.846       3.479       2.995       2.559       2.047       1.442      0.8429      0.4803      0.2684       0.000    
   7    10.00       9.917       9.849       9.793       9.725       9.669       9.609       9.559       9.517       9.475    
        9.434       9.379       9.304       9.223       9.149       9.075       8.973       8.873       8.806       8.757    
        8.714       8.671       8.624       8.526       8.409       8.315       8.212       8.034       7.696       7.169    
        6.636       6.251       6.069       5.921       5.628       5.226       4.931       4.648       4.417       4.255    
        3.986       3.608       3.091       2.527       1.896       1.202      0.7065      0.4877      0.2470       0.000    
   8    10.00       9.911       9.849       9.788       9.728       9.678       9.627       9.579       9.537       9.497    
        9.436       9.357       9.278       9.207       9.137       9.045       8.923       8.830       8.779       8.731    
        8.681       8.644       8.567       8.460       8.355       8.244       8.047       7.764       7.298       6.842    
        6.449       6.151       6.016       5.834       5.502       5.195       4.952       4.746       4.565       4.375    
        4.097       3.633       3.037       2.393       1.674       1.085      0.7476      0.4784      0.2204       0.000    
   9    10.00       9.915       9.845       9.785       9.742       9.700       9.650       9.602       9.555       9.509    
        9.431       9.333       9.251       9.179       9.095       8.991       8.882       8.799       8.747       8.696    
        8.651       8.591       8.482       8.383       8.274       8.116       7.827       7.400       6.940       6.615    
        6.308       6.096       5.946       5.703       5.399       5.165       4.994       4.841       4.687       4.481    
        4.137       3.654       3.022       2.304       1.641       1.123      0.7628      0.4746      0.2353       0.000    
  10    10.00       9.914       9.842       9.793       9.755       9.714       9.670       9.628       9.573       9.499    
        9.404       9.305       9.225       9.146       9.057       8.936       8.827       8.760       8.715       8.665    
        8.618       8.517       8.401       8.291       8.137       7.897       7.461       7.001       6.645       6.402    
        6.223       6.052       5.847       5.599       5.346       5.173       5.050       4.925       4.753       4.514    
        4.145       3.617       2.941       2.300       1.777       1.287      0.8171      0.5041      0.2657       0.000    
  11    10.00       9.902       9.847       9.806       9.767       9.731       9.692       9.636       9.557       9.473    
        9.378       9.282       9.204       9.098       8.975       8.870       8.792       8.730       8.685       8.630    
        8.544       8.414       8.245       8.081       7.810       7.450       7.066       6.766       6.484       6.314    
        6.164       5.937       5.708       5.525       5.361       5.239       5.118       4.956       4.753       4.472    
        4.127       3.661       2.979       2.396       1.933       1.463      0.9424      0.5001      0.2008       0.000    
  12    10.00       9.911       9.856       9.813       9.780       9.743       9.699       9.622       9.528       9.442    
        9.352       9.255       9.151       9.022       8.921       8.830       8.749       8.698       8.638       8.552    
        8.384       8.160       7.922       7.676       7.340       7.067       6.871       6.561       6.333       6.203    
        6.045       5.833       5.656       5.505       5.402       5.292       5.148       4.966       4.724       4.431    
        4.092       3.637       3.013       2.494       2.076       1.569      0.9928      0.4739      0.1576       0.000    
  13    10.00       9.930       9.880       9.833       9.791       9.747       9.682       9.587       9.489       9.405    
        9.309       9.211       9.101       8.968       8.852       8.762       8.704       8.637       8.552       8.347    
        8.038       7.766       7.510       7.203       6.943       6.824       6.580       6.300       6.187       6.082    
        5.915       5.735       5.612       5.514       5.432       5.331       5.167       4.940       4.704       4.403    
        4.066       3.605       2.962       2.477       2.090       1.536      0.9251      0.4288      0.1239       0.000    
  14    10.00       9.949       9.903       9.853       9.802       9.735       9.640       9.540       9.452       9.356    
        9.260       9.170       9.039       8.889       8.784       8.712       8.615       8.512       8.307       7.944    
        7.616       7.375       7.039       6.791       6.676       6.543       6.292       6.133       6.018       5.917    
        5.778       5.674       5.604       5.529       5.445       5.343       5.158       4.911       4.658       4.352    
        3.992       3.435       2.830       2.439       1.964       1.431      0.9115      0.3914      0.1008       0.000    
  15    10.00       9.959       9.913       9.862       9.804       9.702       9.585       9.497       9.409       9.316    
        9.244       9.138       8.964       8.801       8.704       8.575       8.444       8.312       7.965       7.542    
        7.273       6.933       6.629       6.538       6.471       6.294       6.095       5.940       5.860       5.788    
        5.710       5.655       5.604       5.542       5.454       5.329       5.115       4.834       4.568       4.287    
        3.898       3.356       2.834       2.308       1.733       1.256      0.7833      0.3446      0.1034       0.000    
  16    10.00       9.970       9.924       9.864       9.772       9.646       9.546       9.474       9.395       9.299    
        9.201       9.048       8.847       8.690       8.549       8.396       8.307       8.038       7.535       7.148    
        6.879       6.548       6.438       6.385       6.256       6.034       5.874       5.805       5.785       5.740    
        5.685       5.642       5.602       5.536       5.429       5.272       5.015       4.761       4.553       4.252    
        3.810       3.226       2.624       2.038       1.549       1.077      0.6670      0.3269      0.1103       0.000    
  17    10.00       9.970       9.921       9.841       9.726       9.601       9.516       9.451       9.361       9.253    
        9.089       8.894       8.714       8.542       8.367       8.220       7.999       7.548       7.083       6.818    
        6.557       6.357       6.272       6.147       5.945       5.781       5.742       5.739       5.730       5.693    
        5.653       5.621       5.585       5.522       5.366       5.151       4.931       4.755       4.558       4.179    
        3.587       2.991       2.415       1.839       1.325      0.8711      0.5588      0.2921      0.1201       0.000    
  18    10.00       9.962       9.905       9.809       9.665       9.564       9.497       9.407       9.304       9.153    
        8.953       8.781       8.599       8.367       8.137       7.893       7.572       7.118       6.773       6.544    
        6.334       6.168       6.037       5.858       5.723       5.683       5.674       5.675       5.657       5.632    
        5.613       5.591       5.549       5.439       5.277       5.096       4.915       4.758       4.482       3.973    
        3.367       2.731       2.114       1.639       1.229      0.8165      0.4799      0.2416      0.1158       0.000    
  19    10.00       9.953       9.890       9.750       9.606       9.547       9.472       9.360       9.233       9.070    
        8.888       8.725       8.461       8.109       7.836       7.587       7.200       6.791       6.562       6.386    
        6.170       5.969       5.826       5.690       5.625       5.613       5.610       5.593       5.568       5.563    
        5.557       5.540       5.478       5.374       5.239       5.066       4.904       4.676       4.202       3.671    
        3.181       2.521       1.934       1.557       1.149      0.7368      0.4334      0.2461      0.1261       0.000    
  20    10.00       9.943       9.836       9.693       9.588       9.523       9.442       9.322       9.180       9.032    
        8.845       8.596       8.200       7.852       7.610       7.304       6.923       6.701       6.493       6.250    
        6.013       5.834       5.685       5.590       5.543       5.520       5.492       5.486       5.473       5.483    
        5.488       5.474       5.409       5.315       5.178       5.029       4.826       4.410       3.896       3.472    
        2.938       2.328       1.888       1.523       1.112      0.6542      0.3789      0.2562      0.1321       0.000    
  21    10.00       9.905       9.791       9.671       9.567       9.499       9.411       9.271       9.129       8.989    
        8.738       8.357       7.956       7.695       7.426       7.105       6.824       6.615       6.365       6.109    
        5.883       5.708       5.578       5.479       5.412       5.362       5.346       5.355       5.359       5.377    
        5.399       5.375       5.310       5.223       5.088       4.925       4.607       4.169       3.763       3.247    
        2.740       2.259       1.887       1.517      0.9375      0.5304      0.3837      0.2896      0.1389       0.000    
  22    10.00       9.880       9.743       9.635       9.553       9.471       9.347       9.216       9.091       8.896    
        8.574       8.145       7.828       7.593       7.293       6.965       6.697       6.476       6.249       6.008    
        5.784       5.599       5.426       5.271       5.184       5.164       5.182       5.196       5.234       5.259    
        5.283       5.256       5.204       5.114       4.981       4.820       4.496       4.077       3.545       3.046    
        2.678       2.293       1.846       1.226      0.7327      0.5292      0.4024      0.2681      9.9186E-02   0.000    
  23    10.00       9.845       9.711       9.626       9.540       9.417       9.281       9.183       9.025       8.781    
        8.406       8.040       7.812       7.519       7.130       6.805       6.595       6.417       6.205       5.945    
        5.709       5.493       5.245       4.954       4.743       4.786       4.922       5.010       5.091       5.145    
        5.169       5.157       5.111       5.028       4.904       4.723       4.397       3.879       3.345       2.993    
        2.654       2.169       1.524      0.9904      0.7217      0.5401      0.3866      0.2282      9.0839E-02   0.000    
  24    10.00       9.821       9.724       9.622       9.498       9.370       9.266       9.158       9.006       8.683    
        8.332       8.062       7.804       7.413       6.987       6.754       6.578       6.402       6.161       5.917    
        5.707       5.433       5.036       4.486       3.816       4.087       4.494       4.776       4.945       5.031    
        5.076       5.072       5.039       4.948       4.808       4.580       4.165       3.674       3.274       2.908    
        2.491       1.948       1.371      0.9615      0.7238      0.5267      0.3530      0.2475      0.1215       0.000    
  25    10.00       9.841       9.742       9.614       9.485       9.367       9.263       9.164       8.936       8.624    
        8.353       8.080       7.743       7.315       6.999       6.790       6.589       6.378       6.159       5.949    
        5.707       5.444       4.877       3.832       1.975       3.353       4.098       4.542       4.817       4.962    
        5.017       5.019       4.977       4.850       4.657       4.342       3.949       3.562       3.220       2.791    
        2.288       1.769       1.281      0.9541      0.7509      0.5478      0.3722      0.2593      0.1614       0.000    
  26    10.00       9.863       9.766       9.631       9.493       9.386       9.276       9.129       8.905       8.687    
        8.433       8.060       7.648       7.302       7.063       6.858       6.625       6.365       6.153       5.977    
        5.776       5.516       5.025       4.255       3.402       3.755       4.203       4.534       4.788       4.946    
        4.992       4.983       4.908       4.755       4.540       4.239       3.804       3.435       3.112       2.589    
        2.018       1.561       1.269       1.042      0.8100      0.5917      0.4060      0.2818      0.1647       0.000    
  27    10.00       9.891       9.772       9.651       9.532       9.405       9.282       9.135       8.949       8.751    
        8.431       8.012       7.651       7.363       7.161       6.926       6.623       6.352       6.185       6.041    
        5.883       5.642       5.269       4.813       4.349       4.314       4.483       4.693       4.882       4.975    
        4.990       4.965       4.875       4.706       4.454       4.045       3.632       3.324       2.830       2.275    
        1.828       1.534       1.313       1.115      0.8858      0.6460      0.4412      0.3103      0.1958       0.000    
  28    10.00       9.898       9.801       9.691       9.574       9.441       9.305       9.163       9.002       8.770    
        8.398       8.034       7.719       7.436       7.221       6.992       6.744       6.481       6.244       6.094    
        5.967       5.795       5.554       5.220       4.934       4.764       4.795       4.929       4.994       5.021    
        5.005       4.958       4.846       4.628       4.291       3.864       3.502       3.065       2.546       2.148    
        1.828       1.577       1.361       1.154      0.9311      0.7052      0.5008      0.3535      0.2021       0.000    
  29    10.00       9.906       9.811       9.724       9.610       9.490       9.358       9.211       9.035       8.727    
        8.381       8.072       7.773       7.535       7.291       7.047       6.821       6.610       6.381       6.182    
        6.046       5.913       5.753       5.553       5.280       5.144       5.125       5.130       5.133       5.096    
        5.036       4.940       4.802       4.520       4.100       3.715       3.343       2.882       2.463       2.169    
        1.907       1.632       1.388       1.189      0.9880      0.7463      0.5295      0.3697      0.2050       0.000    
  30    10.00       9.918       9.840       9.765       9.663       9.544       9.425       9.259       9.023       8.743    
        8.394       8.060       7.816       7.578       7.348       7.126       6.944       6.747       6.524       6.313    
        6.144       6.032       5.894       5.758       5.608       5.486       5.443       5.348       5.287       5.190    
        5.061       4.892       4.690       4.387       4.049       3.681       3.280       2.844       2.524       2.254    
        1.943       1.667       1.453       1.227      0.9873      0.7729      0.5648      0.3928      0.2208       0.000    
  31    10.00       9.935       9.871       9.800       9.724       9.628       9.494       9.289       9.021       8.726    
        8.391       8.093       7.870       7.638       7.424       7.221       7.038       6.884       6.661       6.448    
        6.293       6.172       6.064       5.960       5.884       5.772       5.650       5.544       5.412       5.260    
        5.054       4.828       4.613       4.359       4.032       3.640       3.229       2.868       2.638       2.382    
        2.036       1.732       1.488       1.258       1.035      0.8140      0.5990      0.4137      0.2143       0.000    
  32    10.00       9.944       9.898       9.837       9.765       9.675       9.533       9.299       9.056       8.777    
        8.432       8.156       7.946       7.708       7.482       7.317       7.157       6.974       6.795       6.585    
        6.426       6.298       6.203       6.116       6.028       5.936       5.792       5.660       5.501       5.292    
        5.047       4.811       4.579       4.330       4.007       3.652       3.329       3.017       2.754       2.462    
        2.143       1.840       1.582       1.317       1.073      0.8863      0.6614      0.4065      0.1816       0.000    
  33    10.00       9.953       9.917       9.865       9.792       9.697       9.514       9.285       9.089       8.840    
        8.525       8.263       8.016       7.751       7.554       7.413       7.274       7.087       6.889       6.711    
        6.534       6.405       6.290       6.193       6.113       6.022       5.881       5.706       5.539       5.336    
        5.087       4.865       4.618       4.304       3.999       3.679       3.416       3.170       2.874       2.551    
        2.274       1.986       1.702       1.427       1.171      0.9612      0.7089      0.4093      0.1780       0.000    
  34    10.00       9.961       9.934       9.890       9.797       9.658       9.491       9.332       9.129       8.884    
        8.617       8.334       8.061       7.803       7.639       7.523       7.373       7.196       6.975       6.805    
        6.648       6.489       6.365       6.266       6.186       6.077       5.918       5.750       5.567       5.333    
        5.114       4.926       4.687       4.380       4.069       3.771       3.521       3.279       2.970       2.675    
        2.425       2.148       1.838       1.563       1.302       1.061      0.7595      0.4613      0.2418       0.000    
  35    10.00       9.968       9.935       9.873       9.759       9.625       9.506       9.369       9.207       8.944    
        8.654       8.374       8.100       7.886       7.737       7.615       7.458       7.271       7.060       6.859    
        6.711       6.564       6.438       6.343       6.255       6.143       5.965       5.764       5.551       5.309    
        5.141       4.950       4.703       4.477       4.214       3.896       3.615       3.410       3.114       2.796    
        2.554       2.270       1.958       1.688       1.416       1.152      0.8713      0.5775      0.2857       0.000    
  36    10.00       9.961       9.909       9.842       9.737       9.613       9.513       9.398       9.225       8.974    
        8.662       8.370       8.174       8.007       7.861       7.706       7.522       7.336       7.117       6.868    
        6.706       6.595       6.483       6.403       6.312       6.174       5.979       5.757       5.499       5.273    
        5.123       4.968       4.749       4.528       4.306       4.021       3.738       3.515       3.250       2.902    
        2.636       2.319       2.008       1.801       1.537       1.243      0.9613      0.6543      0.3201       0.000    
  37    10.00       9.941       9.886       9.820       9.718       9.610       9.498       9.389       9.233       8.945    
        8.623       8.398       8.281       8.121       7.941       7.789       7.570       7.343       7.077       6.829    
        6.710       6.618       6.510       6.425       6.322       6.157       5.960       5.681       5.440       5.282    
        5.145       4.974       4.757       4.580       4.353       4.082       3.859       3.644       3.346       2.963    
        2.614       2.316       2.099       1.884       1.620       1.341       1.059      0.7216      0.3963       0.000    
  38    10.00       9.934       9.864       9.795       9.706       9.605       9.489       9.371       9.194       8.926    
        8.685       8.505       8.354       8.212       8.022       7.783       7.543       7.289       6.996       6.822    
        6.725       6.608       6.505       6.431       6.319       6.128       5.843       5.577       5.442       5.319    
        5.173       4.990       4.791       4.615       4.391       4.143       3.960       3.741       3.360       2.938    
        2.635       2.386       2.170       1.948       1.714       1.430       1.150      0.8346      0.4125       0.000    
  39    10.00       9.917       9.848       9.787       9.703       9.589       9.467       9.347       9.182       8.963    
        8.775       8.637       8.470       8.279       8.016       7.726       7.457       7.166       6.954       6.835    
        6.700       6.566       6.487       6.417       6.311       6.063       5.768       5.597       5.471       5.343    
        5.180       5.005       4.812       4.634       4.464       4.259       4.018       3.752       3.377       2.984    
        2.663       2.405       2.235       2.049       1.786       1.505       1.221      0.8686      0.4070       0.000    
  40    10.00       9.908       9.843       9.781       9.696       9.580       9.462       9.343       9.196       9.015    
        8.861       8.741       8.544       8.258       7.936       7.645       7.362       7.110       6.950       6.811    
        6.657       6.538       6.467       6.385       6.244       6.025       5.818       5.643       5.500       5.367    
        5.206       5.017       4.834       4.684       4.533       4.326       4.047       3.769       3.387       2.965    
        2.665       2.461       2.274       2.114       1.837       1.530       1.270      0.8709      0.4055       0.000    
  41    10.00       9.917       9.843       9.769       9.677       9.587       9.488       9.378       9.234       9.070    
        8.922       8.782       8.538       8.204       7.873       7.600       7.321       7.077       6.923       6.774    
        6.620       6.514       6.438       6.341       6.193       6.025       5.883       5.711       5.532       5.376    
        5.222       5.049       4.872       4.741       4.581       4.374       4.095       3.711       3.272       2.947    
        2.728       2.531       2.337       2.116       1.827       1.533       1.310      0.9277      0.4207       0.000    
  42    10.00       9.917       9.834       9.769       9.702       9.618       9.513       9.390       9.267       9.142    
        8.960       8.726       8.444       8.128       7.821       7.571       7.298       7.058       6.894       6.726    
        6.583       6.489       6.407       6.317       6.180       6.060       5.939       5.746       5.545       5.404    
        5.275       5.087       4.897       4.769       4.621       4.400       4.057       3.603       3.201       2.959    
        2.794       2.618       2.371       2.076       1.799       1.569       1.338      0.9784      0.4827       0.000    
  43    10.00       9.911       9.841       9.785       9.732       9.652       9.550       9.433       9.299       9.111    
        8.882       8.642       8.378       8.049       7.772       7.541       7.297       7.055       6.848       6.692    
        6.560       6.467       6.395       6.320       6.203       6.077       5.954       5.755       5.580       5.475    
        5.318       5.114       4.930       4.799       4.625       4.339       3.942       3.512       3.219       3.033    
        2.858       2.655       2.352       2.050       1.805       1.583       1.384      0.9921      0.4534       0.000    
  44    10.00       9.910       9.850       9.800       9.737       9.677       9.593       9.440       9.245       9.031    
        8.839       8.596       8.279       8.004       7.781       7.517       7.249       6.998       6.792       6.654    
        6.557       6.475       6.400       6.322       6.221       6.092       5.927       5.761       5.642       5.516    
        5.376       5.197       4.987       4.787       4.575       4.254       3.838       3.484       3.257       3.077    
        2.900       2.660       2.367       2.105       1.844       1.606       1.361      0.8957      0.4119       0.000    
  45    10.00       9.921       9.864       9.799       9.738       9.687       9.552       9.372       9.176       8.992    
        8.835       8.512       8.183       7.982       7.745       7.454       7.163       6.930       6.762       6.651    
        6.576       6.498       6.416       6.323       6.211       6.085       5.945       5.816       5.712       5.581    
        5.418       5.233       5.017       4.764       4.511       4.165       3.774       3.495       3.322       3.137    
        2.902       2.626       2.375       2.136       1.905       1.667       1.272      0.7961      0.4007       0.000    
  46    10.00       9.936       9.876       9.800       9.730       9.630       9.485       9.349       9.184       8.988    
        8.728       8.422       8.158       7.904       7.652       7.370       7.101       6.928       6.789       6.681    
        6.605       6.530       6.426       6.310       6.201       6.095       5.984       5.866       5.760       5.645    
        5.498       5.303       5.057       4.757       4.396       4.036       3.747       3.550       3.369       3.176    
        2.897       2.604       2.354       2.165       1.943       1.634       1.184      0.7605      0.3749       0.000    
  47    10.00       9.948       9.891       9.816       9.697       9.565       9.441       9.335       9.184       8.926    
        8.615       8.334       8.105       7.893       7.625       7.318       7.080       6.916       6.805       6.715    
        6.633       6.544       6.436       6.314       6.207       6.123       6.031       5.914       5.792       5.679    
        5.551       5.388       5.062       4.642       4.289       4.030       3.787       3.617       3.457       3.190    
        2.851       2.540       2.313       2.183       1.938       1.559       1.120      0.7337      0.3707       0.000    
  48    10.00       9.953       9.895       9.785       9.662       9.548       9.423       9.316       9.164       8.873    
        8.533       8.299       8.111       7.851       7.539       7.262       7.083       6.917       6.807       6.737    
        6.654       6.548       6.431       6.320       6.231       6.164       6.081       5.952       5.811       5.689    
        5.555       5.359       5.019       4.671       4.355       4.070       3.853       3.679       3.475       3.136    
        2.770       2.530       2.350       2.119       1.797       1.462       1.085      0.7391      0.3913       0.000    
  49    10.00       9.951       9.863       9.756       9.664       9.542       9.420       9.307       9.115       8.807    
        8.504       8.280       8.045       7.782       7.547       7.289       7.039       6.886       6.818       6.753    
        6.674       6.552       6.417       6.320       6.252       6.202       6.107       5.958       5.810       5.700    
        5.554       5.296       4.997       4.750       4.485       4.171       3.890       3.675       3.435       3.072    
        2.777       2.567       2.318       1.984       1.699       1.396       1.067      0.7514      0.3827       0.000    
  50    10.00       9.938       9.841       9.744       9.670       9.556       9.421       9.277       9.070       8.826    
        8.519       8.219       7.974       7.765       7.575       7.286       7.002       6.886       6.827       6.763    
        6.688       6.551       6.406       6.317       6.264       6.218       6.112       5.952       5.811       5.698    
        5.539       5.268       5.037       4.826       4.540       4.227       3.943       3.658       3.312       2.990    
        2.833       2.612       2.249       1.914       1.674       1.386       1.099      0.7340      0.3015       0.000    

 HEAD WILL BE SAVED ON UNIT   51 AT END OF TIME STEP  79, STRESS PERIOD    2

 DRAWDOWN WILL BE SAVED ON UNIT   52 AT END OF TIME STEP  79, STRESS PERIOD    2
1
  VOLUMETRIC BUDGET FOR ENTIRE MODEL AT END OF TIME STEP 79 IN STRESS PERIOD   2
  ------------------------------------------------------------------------------

     CUMULATIVE VOLUMES      L**3       RATES FOR THIS TIME STEP      L**3/T
     ------------------                 ------------------------

           IN:                                      IN:
           ---                                      ---
             STORAGE =       36934.5391               STORAGE =         402.6852
       CONSTANT HEAD =       45628.0469         CONSTANT HEAD =         629.9176
               WELLS =           0.0000                 WELLS =           0.0000

            TOTAL IN =       82562.5859              TOTAL IN =        1032.6028

          OUT:                                     OUT:
          ----                                     ----
             STORAGE =       9.3745E-03               STORAGE =           0.0000
       CONSTANT HEAD =       43062.5547         CONSTANT HEAD =         532.6027
               WELLS =       39500.0000                 WELLS =         500.0000

           TOTAL OUT =       82562.5625             TOTAL OUT =        1032.6027

            IN - OUT =       2.3438E-02              IN - OUT =       1.2207E-04

 PERCENT DISCREPANCY =           0.00     PERCENT DISCREPANCY =           0.00






          TIME SUMMARY AT END OF TIME STEP  79 IN STRESS PERIOD    2
                    SECONDS     MINUTES      HOURS       DAYS        YEARS
                    -----------------------------------------------------------
   TIME STEP LENGTH  86400.      1440.0      24.000      1.0000     2.73785E-03
 STRESS PERIOD TIME 6.82560E+06 1.13760E+05  1896.0      79.000     0.21629    
         TOTAL TIME 6.91200E+06 1.15200E+05  1920.0      80.000     0.21903    
1
 
 SOLVING FOR HEAD 

 OUTPUT CONTROL FOR STRESS PERIOD    2   TIME STEP  80
    SAVE HEAD FOR ALL LAYERS
    SAVE DRAWDOWN FOR ALL LAYERS
    SAVE BUDGET
    PRINT HEAD FOR ALL LAYERS
    PRINT BUDGET
 UBDSV1 SAVING "         STORAGE" ON UNIT  53 AT TIME STEP 80, STRESS PERIOD   2
 UBDSV2 SAVING "   CONSTANT HEAD" ON UNIT  53 AT TIME STEP 80, STRESS PERIOD   2
 UBDSV1 SAVING "FLOW RIGHT FACE " ON UNIT  53 AT TIME STEP 80, STRESS PERIOD   2
 UBDSV1 SAVING "FLOW FRONT FACE " ON UNIT  53 AT TIME STEP 80, STRESS PERIOD   2
1
              HEAD IN LAYER   1 AT END OF TIME STEP  80 IN STRESS PERIOD    2
  ---------------------------------------------------------------------------

            1           2           3           4           5           6           7           8           9          10
           11          12          13          14          15          16          17          18          19          20
           21          22          23          24          25          26          27          28          29          30
           31          32          33          34          35          36          37          38          39          40
           41          42          43          44          45          46          47          48          49          50
 ........................................................................................................................
   1    10.00       9.952       9.887       9.822       9.768       9.702       9.637       9.569       9.478       9.404    
        9.360       9.316       9.268       9.220       9.143       9.058       8.967       8.895       8.863       8.828    
        8.785       8.748       8.710       8.664       8.599       8.487       8.352       8.222       8.073       7.925    
        7.715       7.382       6.991       6.578       6.117       5.691       5.330       4.997       4.541       4.047    
        3.627       3.213       2.642       2.100       1.721       1.342       1.023      0.8177      0.5423       0.000    
   2    10.00       9.952       9.893       9.828       9.770       9.709       9.637       9.548       9.461       9.404    
        9.364       9.325       9.288       9.228       9.139       9.052       8.968       8.898       8.864       8.824    
        8.779       8.751       8.721       8.671       8.597       8.490       8.354       8.218       8.078       7.931    
        7.704       7.360       6.947       6.481       6.016       5.605       5.283       4.955       4.494       4.029    
        3.606       3.109       2.593       2.166       1.790       1.436       1.073      0.7765      0.4146       0.000    
   3    10.00       9.947       9.891       9.831       9.773       9.703       9.613       9.528       9.473       9.420    
        9.375       9.341       9.304       9.248       9.159       9.050       8.962       8.904       8.860       8.820    
        8.783       8.753       8.723       8.660       8.580       8.471       8.341       8.238       8.090       7.916    
        7.622       7.222       6.780       6.326       5.900       5.520       5.234       4.896       4.394       3.943    
        3.591       3.140       2.668       2.258       1.868       1.512       1.083      0.6661      0.2930       0.000    
   4    10.00       9.951       9.894       9.829       9.757       9.676       9.590       9.527       9.480       9.431    
        9.391       9.362       9.321       9.260       9.179       9.060       8.961       8.907       8.860       8.822    
        8.780       8.744       8.706       8.638       8.556       8.450       8.324       8.208       8.092       7.872    
        7.490       6.997       6.523       6.176       5.861       5.496       5.129       4.699       4.275       3.949    
        3.638       3.240       2.769       2.366       1.958       1.527       1.032      0.5913      0.2755       0.000    
   5    10.00       9.948       9.887       9.813       9.738       9.663       9.588       9.535       9.485       9.443    
        9.408       9.378       9.330       9.258       9.163       9.054       8.970       8.911       8.863       8.809    
        8.760       8.723       8.674       8.606       8.529       8.406       8.280       8.180       8.065       7.780    
        7.274       6.728       6.337       6.075       5.792       5.425       5.006       4.583       4.287       4.012    
        3.733       3.325       2.836       2.484       2.071       1.507      0.9392      0.5457      0.2745       0.000    
   6    10.00       9.935       9.863       9.805       9.735       9.656       9.593       9.545       9.494       9.455    
        9.424       9.385       9.324       9.240       9.158       9.068       8.977       8.903       8.841       8.779    
        8.736       8.696       8.651       8.578       8.464       8.346       8.253       8.144       7.947       7.534    
        6.968       6.472       6.174       5.980       5.751       5.348       4.895       4.565       4.348       4.110    
        3.842       3.475       2.992       2.557       2.045       1.441      0.8422      0.4799      0.2682       0.000    
   7    10.00       9.916       9.849       9.792       9.725       9.668       9.608       9.558       9.515       9.474    
        9.432       9.377       9.302       9.221       9.147       9.072       8.970       8.870       8.803       8.753    
        8.711       8.667       8.621       8.522       8.404       8.311       8.207       8.029       7.691       7.163    
        6.630       6.244       6.063       5.915       5.622       5.220       4.926       4.643       4.412       4.250    
        3.981       3.604       3.088       2.525       1.894       1.201      0.7059      0.4872      0.2468       0.000    
   8    10.00       9.911       9.849       9.788       9.727       9.677       9.626       9.577       9.536       9.496    
        9.435       9.355       9.276       9.204       9.135       9.042       8.920       8.826       8.775       8.728    
        8.677       8.641       8.563       8.456       8.351       8.240       8.042       7.758       7.292       6.835    
        6.442       6.145       6.010       5.828       5.495       5.189       4.946       4.741       4.559       4.370    
        4.093       3.629       3.034       2.391       1.672       1.084      0.7470      0.4779      0.2202       0.000    
   9    10.00       9.915       9.845       9.785       9.741       9.699       9.649       9.601       9.554       9.507    
        9.429       9.331       9.249       9.176       9.092       8.988       8.878       8.795       8.743       8.693    
        8.648       8.587       8.478       8.378       8.269       8.111       7.821       7.394       6.933       6.608    
        6.301       6.089       5.939       5.696       5.392       5.158       4.987       4.835       4.682       4.476    
        4.133       3.650       3.018       2.301       1.640       1.122      0.7621      0.4742      0.2351       0.000    
  10    10.00       9.914       9.842       9.793       9.754       9.713       9.669       9.627       9.571       9.497    
        9.402       9.303       9.223       9.143       9.054       8.933       8.823       8.757       8.711       8.661    
        8.614       8.513       8.396       8.286       8.132       7.891       7.455       6.994       6.637       6.394    
        6.215       6.045       5.840       5.592       5.339       5.167       5.044       4.919       4.747       4.508    
        4.140       3.613       2.938       2.298       1.775       1.286      0.8163      0.5037      0.2655       0.000    
  11    10.00       9.902       9.847       9.805       9.766       9.730       9.691       9.635       9.555       9.472    
        9.376       9.279       9.202       9.095       8.972       8.867       8.788       8.726       8.681       8.625    
        8.540       8.409       8.240       8.075       7.803       7.444       7.058       6.758       6.476       6.306    
        6.156       5.929       5.700       5.517       5.353       5.232       5.111       4.950       4.747       4.467    
        4.122       3.657       2.976       2.394       1.931       1.462      0.9416      0.4996      0.2006       0.000    
  12    10.00       9.911       9.856       9.812       9.779       9.742       9.698       9.621       9.526       9.440    
        9.349       9.252       9.148       9.018       8.917       8.827       8.745       8.694       8.634       8.548    
        8.379       8.154       7.916       7.669       7.333       7.059       6.862       6.553       6.324       6.195    
        6.037       5.824       5.648       5.497       5.395       5.285       5.141       4.960       4.718       4.425    
        4.086       3.633       3.010       2.491       2.074       1.568      0.9920      0.4735      0.1575       0.000    
  13    10.00       9.930       9.879       9.832       9.790       9.746       9.681       9.586       9.487       9.402    
        9.306       9.208       9.098       8.964       8.848       8.758       8.700       8.633       8.548       8.342    
        8.032       7.759       7.503       7.195       6.934       6.815       6.571       6.291       6.178       6.073    
        5.906       5.727       5.603       5.506       5.424       5.323       5.159       4.933       4.697       4.397    
        4.061       3.601       2.959       2.474       2.088       1.535      0.9243      0.4284      0.1238       0.000    
  14    10.00       9.949       9.903       9.852       9.802       9.734       9.639       9.538       9.450       9.353    
        9.257       9.167       9.035       8.885       8.780       8.708       8.611       8.507       8.301       7.938    
        7.608       7.367       7.031       6.782       6.667       6.533       6.282       6.123       6.008       5.907    
        5.769       5.664       5.595       5.521       5.437       5.334       5.150       4.904       4.651       4.346    
        3.987       3.431       2.826       2.436       1.962       1.430      0.9107      0.3911      0.1007       0.000    
  15    10.00       9.959       9.913       9.862       9.803       9.701       9.584       9.495       9.407       9.314    
        9.241       9.135       8.960       8.796       8.699       8.570       8.439       8.306       7.959       7.534    
        7.265       6.924       6.619       6.529       6.461       6.284       6.085       5.930       5.849       5.778    
        5.700       5.645       5.595       5.533       5.445       5.320       5.107       4.827       4.562       4.280    
        3.892       3.352       2.830       2.305       1.731       1.255      0.7826      0.3443      0.1034       0.000    
  16    10.00       9.970       9.924       9.863       9.771       9.645       9.544       9.472       9.392       9.296    
        9.198       9.045       8.843       8.685       8.544       8.390       8.301       8.031       7.527       7.139    
        6.870       6.538       6.428       6.375       6.246       6.023       5.863       5.794       5.775       5.730    
        5.675       5.632       5.592       5.526       5.420       5.264       5.007       4.754       4.546       4.246    
        3.805       3.222       2.621       2.036       1.547       1.076      0.6664      0.3266      0.1102       0.000    
  17    10.00       9.969       9.921       9.841       9.725       9.599       9.514       9.448       9.359       9.250    
        9.085       8.890       8.709       8.537       8.361       8.214       7.993       7.540       7.074       6.809    
        6.547       6.347       6.261       6.136       5.934       5.770       5.731       5.728       5.719       5.682    
        5.642       5.611       5.575       5.512       5.357       5.142       4.923       4.747       4.551       4.173    
        3.582       2.987       2.412       1.837       1.323      0.8703      0.5583      0.2918      0.1199       0.000    
  18    10.00       9.962       9.905       9.808       9.663       9.562       9.495       9.405       9.301       9.149    
        8.949       8.776       8.593       8.361       8.130       7.886       7.564       7.108       6.763       6.534    
        6.323       6.157       6.026       5.847       5.711       5.671       5.663       5.664       5.646       5.621    
        5.602       5.581       5.539       5.429       5.267       5.087       4.906       4.750       4.475       3.967    
        3.363       2.727       2.111       1.637       1.228      0.8157      0.4795      0.2414      0.1157       0.000    
  19    10.00       9.953       9.890       9.749       9.605       9.545       9.470       9.358       9.230       9.066    
        8.884       8.720       8.455       8.102       7.828       7.578       7.191       6.781       6.551       6.376    
        6.159       5.958       5.815       5.678       5.613       5.601       5.598       5.582       5.556       5.552    
        5.546       5.529       5.467       5.363       5.230       5.057       4.895       4.668       4.195       3.666    
        3.176       2.518       1.932       1.555       1.148      0.7360      0.4330      0.2458      0.1259       0.000    
  20    10.00       9.943       9.836       9.691       9.586       9.521       9.439       9.319       9.176       9.027    
        8.840       8.590       8.193       7.844       7.602       7.295       6.913       6.691       6.482       6.239    
        6.002       5.822       5.674       5.579       5.532       5.509       5.480       5.475       5.462       5.472    
        5.476       5.463       5.398       5.304       5.168       5.020       4.818       4.403       3.890       3.467    
        2.933       2.325       1.886       1.521       1.111      0.6536      0.3785      0.2560      0.1319       0.000    
  21    10.00       9.905       9.790       9.669       9.565       9.497       9.408       9.267       9.125       8.984    
        8.732       8.351       7.948       7.686       7.417       7.095       6.814       6.604       6.354       6.098    
        5.871       5.697       5.567       5.467       5.400       5.350       5.334       5.343       5.347       5.365    
        5.387       5.363       5.298       5.212       5.077       4.916       4.598       4.161       3.757       3.243    
        2.736       2.256       1.884       1.515      0.9365      0.5299      0.3834      0.2893      0.1388       0.000    
  22    10.00       9.880       9.742       9.634       9.551       9.469       9.344       9.212       9.087       8.891    
        8.568       8.138       7.820       7.584       7.283       6.955       6.687       6.465       6.238       5.997    
        5.772       5.587       5.414       5.259       5.172       5.152       5.170       5.184       5.222       5.247    
        5.271       5.244       5.192       5.103       4.971       4.810       4.487       4.070       3.540       3.042    
        2.674       2.291       1.844       1.224      0.7320      0.5287      0.4021      0.2678      9.9102E-02   0.000    
  23    10.00       9.844       9.710       9.625       9.537       9.414       9.277       9.179       9.020       8.776    
        8.399       8.033       7.804       7.510       7.120       6.795       6.585       6.406       6.193       5.934    
        5.698       5.481       5.233       4.942       4.730       4.773       4.909       4.998       5.078       5.133    
        5.156       5.145       5.099       5.016       4.893       4.713       4.388       3.872       3.340       2.989    
        2.651       2.167       1.522      0.9894      0.7211      0.5397      0.3862      0.2280      9.0767E-02   0.000    
  24    10.00       9.820       9.723       9.620       9.496       9.367       9.263       9.154       9.001       8.678    
        8.325       8.054       7.796       7.404       6.977       6.744       6.567       6.391       6.150       5.906    
        5.696       5.421       5.024       4.474       3.803       4.075       4.481       4.764       4.932       5.019    
        5.064       5.060       5.027       4.937       4.798       4.570       4.157       3.667       3.269       2.904    
        2.488       1.946       1.369      0.9607      0.7232      0.5263      0.3528      0.2473      0.1214       0.000    
  25    10.00       9.841       9.741       9.612       9.482       9.364       9.260       9.160       8.932       8.618    
        8.347       8.073       7.735       7.305       6.989       6.779       6.579       6.367       6.147       5.937    
        5.695       5.432       4.865       3.819       1.962       3.340       4.086       4.529       4.804       4.949    
        5.004       5.006       4.964       4.839       4.647       4.333       3.941       3.556       3.215       2.787    
        2.285       1.767       1.279      0.9533      0.7503      0.5474      0.3720      0.2591      0.1613       0.000    
  26    10.00       9.862       9.765       9.629       9.491       9.383       9.273       9.125       8.900       8.682    
        8.427       8.052       7.639       7.292       7.053       6.848       6.615       6.354       6.141       5.966    
        5.764       5.504       5.013       4.242       3.390       3.743       4.190       4.521       4.775       4.933    
        4.979       4.970       4.896       4.744       4.530       4.230       3.797       3.429       3.108       2.585    
        2.016       1.559       1.268       1.041      0.8094      0.5912      0.4057      0.2816      0.1646       0.000    
  27    10.00       9.890       9.771       9.649       9.529       9.402       9.279       9.131       8.945       8.745    
        8.425       8.005       7.642       7.354       7.152       6.916       6.613       6.341       6.174       6.030    
        5.872       5.631       5.257       4.801       4.337       4.302       4.470       4.680       4.868       4.963    
        4.977       4.952       4.863       4.695       4.444       4.037       3.626       3.319       2.826       2.272    
        1.827       1.532       1.312       1.114      0.8851      0.6455      0.4409      0.3101      0.1957       0.000    
  28    10.00       9.898       9.800       9.690       9.572       9.438       9.302       9.159       8.998       8.765    
        8.392       8.026       7.710       7.427       7.212       6.982       6.734       6.470       6.233       6.082    
        5.956       5.784       5.542       5.208       4.922       4.752       4.783       4.916       4.981       5.008    
        4.993       4.946       4.835       4.618       4.282       3.857       3.497       3.061       2.543       2.146    
        1.826       1.575       1.360       1.153      0.9304      0.7047      0.5004      0.3533      0.2020       0.000    
  29    10.00       9.905       9.810       9.723       9.609       9.488       9.355       9.208       9.031       8.722    
        8.375       8.065       7.765       7.526       7.282       7.037       6.811       6.599       6.371       6.171    
        6.035       5.902       5.741       5.541       5.268       5.132       5.112       5.117       5.120       5.084    
        5.024       4.929       4.792       4.511       4.093       3.709       3.338       2.878       2.460       2.167    
        1.906       1.631       1.386       1.188      0.9873      0.7458      0.5291      0.3694      0.2049       0.000    
  30    10.00       9.918       9.839       9.764       9.661       9.542       9.423       9.256       9.019       8.738    
        8.388       8.053       7.808       7.570       7.339       7.117       6.934       6.737       6.514       6.302    
        6.133       6.020       5.883       5.746       5.596       5.474       5.431       5.336       5.275       5.178    
        5.050       4.882       4.681       4.379       4.042       3.676       3.276       2.841       2.521       2.252    
        1.942       1.665       1.452       1.226      0.9866      0.7724      0.5644      0.3926      0.2206       0.000    
  31    10.00       9.935       9.870       9.799       9.723       9.627       9.492       9.286       9.017       8.721    
        8.385       8.086       7.863       7.630       7.416       7.212       7.029       6.875       6.651       6.438    
        6.283       6.161       6.053       5.949       5.873       5.760       5.638       5.532       5.400       5.249    
        5.044       4.819       4.606       4.352       4.026       3.635       3.226       2.865       2.636       2.380    
        2.035       1.730       1.487       1.257       1.034      0.8135      0.5987      0.4135      0.2142       0.000    
  32    10.00       9.944       9.898       9.836       9.764       9.674       9.531       9.296       9.053       8.773    
        8.427       8.149       7.939       7.700       7.474       7.308       7.148       6.965       6.786       6.575    
        6.416       6.287       6.192       6.106       6.018       5.926       5.782       5.650       5.490       5.282    
        5.039       4.804       4.573       4.324       4.003       3.648       3.325       3.015       2.752       2.460    
        2.141       1.839       1.581       1.316       1.073      0.8858      0.6610      0.4063      0.1815       0.000    
  33    10.00       9.953       9.917       9.864       9.792       9.696       9.512       9.282       9.086       8.836    
        8.520       8.257       8.009       7.744       7.546       7.405       7.265       7.078       6.880       6.702    
        6.524       6.395       6.280       6.183       6.103       6.011       5.871       5.696       5.530       5.327    
        5.079       4.858       4.612       4.299       3.994       3.676       3.413       3.168       2.872       2.549    
        2.272       1.985       1.701       1.427       1.170      0.9608      0.7086      0.4092      0.1779       0.000    
  34    10.00       9.961       9.934       9.890       9.796       9.657       9.489       9.329       9.126       8.880    
        8.613       8.328       8.054       7.796       7.632       7.515       7.365       7.188       6.966       6.796    
        6.639       6.479       6.355       6.256       6.177       6.068       5.909       5.741       5.558       5.326    
        5.108       4.920       4.682       4.375       4.066       3.768       3.518       3.276       2.968       2.673    
        2.424       2.147       1.837       1.562       1.302       1.061      0.7593      0.4611      0.2418       0.000    
  35    10.00       9.968       9.935       9.872       9.758       9.624       9.504       9.366       9.204       8.940    
        8.649       8.369       8.095       7.880       7.730       7.607       7.450       7.263       7.051       6.850    
        6.703       6.556       6.429       6.334       6.246       6.135       5.957       5.756       5.544       5.303    
        5.135       4.946       4.699       4.473       4.210       3.894       3.613       3.408       3.112       2.795    
        2.553       2.269       1.958       1.687       1.416       1.152      0.8710      0.5773      0.2856       0.000    
  36    10.00       9.961       9.909       9.841       9.736       9.612       9.512       9.396       9.222       8.971    
        8.658       8.365       8.169       8.001       7.855       7.699       7.515       7.329       7.109       6.861    
        6.699       6.588       6.475       6.395       6.305       6.166       5.972       5.751       5.494       5.268    
        5.119       4.965       4.746       4.525       4.304       4.019       3.736       3.513       3.248       2.900    
        2.635       2.318       2.007       1.800       1.536       1.242      0.9611      0.6541      0.3201       0.000    
  37    10.00       9.941       9.886       9.819       9.717       9.609       9.497       9.387       9.230       8.942    
        8.620       8.394       8.276       8.116       7.935       7.782       7.563       7.337       7.070       6.822    
        6.704       6.611       6.503       6.418       6.315       6.151       5.954       5.676       5.436       5.279    
        5.141       4.971       4.754       4.578       4.350       4.080       3.858       3.642       3.344       2.962    
        2.613       2.316       2.099       1.884       1.620       1.341       1.059      0.7215      0.3962       0.000    
  38    10.00       9.934       9.864       9.794       9.706       9.604       9.487       9.369       9.192       8.923    
        8.682       8.501       8.350       8.207       8.016       7.778       7.537       7.283       6.990       6.816    
        6.719       6.602       6.499       6.425       6.313       6.123       5.838       5.573       5.439       5.316    
        5.170       4.987       4.789       4.612       4.389       4.141       3.958       3.739       3.358       2.937    
        2.634       2.385       2.169       1.947       1.713       1.430       1.150      0.8344      0.4124       0.000    
  39    10.00       9.916       9.848       9.786       9.702       9.588       9.466       9.345       9.180       8.960    
        8.772       8.633       8.466       8.274       8.012       7.721       7.452       7.161       6.949       6.830    
        6.695       6.562       6.482       6.412       6.306       6.059       5.765       5.594       5.468       5.340    
        5.177       5.002       4.810       4.632       4.462       4.257       4.016       3.751       3.375       2.983    
        2.662       2.405       2.235       2.049       1.785       1.505       1.220      0.8684      0.4069       0.000    
  40    10.00       9.908       9.843       9.781       9.695       9.579       9.460       9.342       9.195       9.013    
        8.858       8.738       8.540       8.254       7.932       7.641       7.358       7.105       6.946       6.807    
        6.652       6.534       6.463       6.381       6.240       6.022       5.815       5.640       5.497       5.364    
        5.204       5.015       4.832       4.682       4.531       4.324       4.045       3.768       3.386       2.964    
        2.664       2.460       2.273       2.114       1.837       1.529       1.269      0.8707      0.4054       0.000    
  41    10.00       9.917       9.842       9.768       9.677       9.586       9.487       9.377       9.232       9.068    
        8.920       8.779       8.535       8.201       7.869       7.596       7.317       7.073       6.919       6.770    
        6.616       6.510       6.434       6.337       6.190       6.022       5.880       5.709       5.530       5.374    
        5.219       5.047       4.870       4.739       4.579       4.372       4.093       3.709       3.271       2.946    
        2.728       2.530       2.337       2.115       1.827       1.533       1.310      0.9275      0.4206       0.000    
  42    10.00       9.917       9.833       9.769       9.701       9.618       9.513       9.389       9.266       9.141    
        8.958       8.724       8.442       8.125       7.818       7.568       7.295       7.055       6.891       6.723    
        6.579       6.486       6.403       6.314       6.177       6.058       5.936       5.743       5.543       5.402    
        5.273       5.084       4.895       4.767       4.619       4.398       4.055       3.602       3.200       2.958    
        2.793       2.617       2.370       2.076       1.799       1.569       1.338      0.9781      0.4826       0.000    
  43    10.00       9.911       9.840       9.785       9.732       9.652       9.549       9.432       9.297       9.109    
        8.880       8.640       8.376       8.047       7.769       7.538       7.294       7.052       6.845       6.689    
        6.557       6.464       6.392       6.318       6.200       6.074       5.952       5.753       5.578       5.472    
        5.316       5.112       4.928       4.797       4.624       4.337       3.941       3.511       3.218       3.032    
        2.857       2.654       2.352       2.049       1.805       1.583       1.383      0.9919      0.4533       0.000    
  44    10.00       9.910       9.849       9.800       9.736       9.677       9.593       9.439       9.244       9.030    
        8.838       8.595       8.277       8.002       7.779       7.515       7.246       6.995       6.789       6.652    
        6.554       6.472       6.398       6.320       6.218       6.090       5.924       5.759       5.640       5.514    
        5.373       5.195       4.985       4.785       4.574       4.253       3.836       3.483       3.256       3.076    
        2.900       2.659       2.367       2.105       1.843       1.605       1.361      0.8955      0.4118       0.000    
  45    10.00       9.920       9.864       9.799       9.738       9.686       9.552       9.372       9.175       8.991    
        8.833       8.511       8.181       7.980       7.743       7.451       7.161       6.928       6.760       6.649    
        6.573       6.495       6.413       6.321       6.208       6.083       5.942       5.814       5.709       5.578    
        5.416       5.231       5.015       4.762       4.509       4.164       3.773       3.494       3.321       3.136    
        2.901       2.625       2.375       2.136       1.904       1.667       1.271      0.7959      0.4006       0.000    
  46    10.00       9.936       9.875       9.800       9.730       9.630       9.484       9.348       9.184       8.987    
        8.726       8.421       8.156       7.902       7.650       7.368       7.098       6.925       6.786       6.679    
        6.603       6.527       6.424       6.308       6.199       6.092       5.982       5.863       5.758       5.642    
        5.496       5.301       5.055       4.755       4.394       4.035       3.746       3.549       3.368       3.175    
        2.897       2.603       2.353       2.165       1.943       1.634       1.184      0.7603      0.3748       0.000    
  47    10.00       9.948       9.891       9.816       9.697       9.565       9.440       9.334       9.183       8.925    
        8.613       8.333       8.103       7.891       7.623       7.316       7.078       6.913       6.802       6.713    
        6.631       6.542       6.434       6.312       6.205       6.121       6.028       5.912       5.790       5.677    
        5.549       5.386       5.060       4.640       4.287       4.029       3.786       3.616       3.456       3.189    
        2.850       2.539       2.313       2.182       1.937       1.559       1.119      0.7336      0.3706       0.000    
  48    10.00       9.953       9.895       9.784       9.662       9.548       9.423       9.315       9.163       8.872    
        8.532       8.297       8.109       7.849       7.537       7.260       7.080       6.915       6.805       6.735    
        6.652       6.546       6.429       6.317       6.229       6.161       6.079       5.950       5.809       5.687    
        5.553       5.357       5.018       4.669       4.354       4.068       3.852       3.678       3.474       3.135    
        2.769       2.530       2.350       2.119       1.797       1.461       1.084      0.7390      0.3912       0.000    
  49    10.00       9.951       9.863       9.756       9.664       9.542       9.420       9.306       9.115       8.806    
        8.503       8.278       8.043       7.780       7.545       7.287       7.037       6.883       6.816       6.751    
        6.672       6.550       6.414       6.317       6.250       6.199       6.105       5.956       5.808       5.697    
        5.552       5.294       4.995       4.748       4.484       4.169       3.889       3.674       3.434       3.071    
        2.776       2.566       2.318       1.984       1.699       1.396       1.067      0.7512      0.3826       0.000    
  50    10.00       9.938       9.841       9.744       9.670       9.556       9.421       9.276       9.069       8.825    
        8.518       8.217       7.972       7.763       7.574       7.284       7.000       6.884       6.824       6.761    
        6.685       6.548       6.404       6.315       6.261       6.215       6.110       5.950       5.808       5.695    
        5.537       5.266       5.036       4.824       4.539       4.226       3.942       3.657       3.311       2.989    
        2.833       2.612       2.249       1.913       1.674       1.385       1.099      0.7338      0.3014       0.000    

 HEAD WILL BE SAVED ON UNIT   51 AT END OF TIME STEP  80, STRESS PERIOD    2

 DRAWDOWN WILL BE SAVED ON UNIT   52 AT END OF TIME STEP  80, STRESS PERIOD    2
1
  VOLUMETRIC BUDGET FOR ENTIRE MODEL AT END OF TIME STEP 80 IN STRESS PERIOD   2
  ------------------------------------------------------------------------------

     CUMULATIVE VOLUMES      L**3       RATES FOR THIS TIME STEP      L**3/T
     ------------------                 ------------------------

           IN:                                      IN:
           ---                                      ---
             STORAGE =       37335.2031               STORAGE =         400.6646
       CONSTANT HEAD =       46259.6914         CONSTANT HEAD =         631.6447
               WELLS =           0.0000                 WELLS =           0.0000

            TOTAL IN =       83594.8906              TOTAL IN =        1032.3093

          OUT:                                     OUT:
          ----                                     ----
             STORAGE =       9.3745E-03               STORAGE =           0.0000
       CONSTANT HEAD =       43594.8633         CONSTANT HEAD =         532.3091
               WELLS =       40000.0000                 WELLS =         500.0000

           TOTAL OUT =       83594.8750             TOTAL OUT =        1032.3091

            IN - OUT =       1.5625E-02              IN - OUT =       2.4414E-04

 PERCENT DISCREPANCY =           0.00     PERCENT DISCREPANCY =           0.00






          TIME SUMMARY AT END OF TIME STEP  80 IN STRESS PERIOD    2
                    SECONDS     MINUTES      HOURS       DAYS        YEARS
                    -----------------------------------------------------------
   TIME STEP LENGTH  86400.      1440.0      24.000      1.0000     2.73785E-03
 STRESS PERIOD TIME 6.91200E+06 1.15200E+05  1920.0      80.000     0.21903    
         TOTAL TIME 6.99840E+06 1.16640E+05  1944.0      81.000     0.22177    
1
 
 SOLVING FOR HEAD 

 OUTPUT CONTROL FOR STRESS PERIOD    2   TIME STEP  81
    SAVE HEAD FOR ALL LAYERS
    SAVE DRAWDOWN FOR ALL LAYERS
    SAVE BUDGET
    PRINT HEAD FOR ALL LAYERS
    PRINT BUDGET
 UBDSV1 SAVING "         STORAGE" ON UNIT  53 AT TIME STEP 81, STRESS PERIOD   2
 UBDSV2 SAVING "   CONSTANT HEAD" ON UNIT  53 AT TIME STEP 81, STRESS PERIOD   2
 UBDSV1 SAVING "FLOW RIGHT FACE " ON UNIT  53 AT TIME STEP 81, STRESS PERIOD   2
 UBDSV1 SAVING "FLOW FRONT FACE " ON UNIT  53 AT TIME STEP 81, STRESS PERIOD   2
1
              HEAD IN LAYER   1 AT END OF TIME STEP  81 IN STRESS PERIOD    2
  ---------------------------------------------------------------------------

            1           2           3           4           5           6           7           8           9          10
           11          12          13          14          15          16          17          18          19          20
           21          22          23          24          25          26          27          28          29          30
           31          32          33          34          35          36          37          38          39          40
           41          42          43          44          45          46          47          48          49          50
 ........................................................................................................................
   1    10.00       9.952       9.887       9.821       9.767       9.701       9.636       9.568       9.477       9.402    
        9.358       9.314       9.266       9.218       9.141       9.056       8.964       8.892       8.860       8.825    
        8.781       8.744       8.707       8.660       8.595       8.483       8.348       8.218       8.069       7.921    
        7.711       7.378       6.986       6.574       6.113       5.687       5.327       4.993       4.538       4.043    
        3.624       3.210       2.640       2.098       1.720       1.341       1.022      0.8170      0.5419       0.000    
   2    10.00       9.952       9.893       9.828       9.770       9.709       9.636       9.547       9.459       9.402    
        9.363       9.323       9.286       9.226       9.137       9.050       8.965       8.895       8.860       8.820    
        8.776       8.748       8.718       8.668       8.593       8.486       8.350       8.214       8.074       7.927    
        7.700       7.356       6.943       6.477       6.011       5.601       5.279       4.952       4.490       4.026    
        3.603       3.106       2.591       2.164       1.788       1.435       1.072      0.7758      0.4143       0.000    
   3    10.00       9.947       9.891       9.831       9.772       9.702       9.612       9.527       9.471       9.419    
        9.373       9.339       9.302       9.245       9.157       9.048       8.959       8.901       8.857       8.817    
        8.780       8.750       8.719       8.656       8.576       8.467       8.338       8.235       8.086       7.912    
        7.618       7.218       6.775       6.322       5.895       5.516       5.230       4.892       4.391       3.940    
        3.588       3.137       2.665       2.256       1.867       1.511       1.082      0.6655      0.2927       0.000    
   4    10.00       9.951       9.894       9.828       9.756       9.675       9.589       9.526       9.478       9.429    
        9.389       9.360       9.319       9.258       9.176       9.057       8.958       8.904       8.857       8.819    
        8.777       8.741       8.702       8.635       8.553       8.446       8.320       8.204       8.087       7.868    
        7.486       6.993       6.518       6.171       5.856       5.491       5.124       4.695       4.271       3.945    
        3.634       3.237       2.767       2.364       1.956       1.526       1.031      0.5908      0.2752       0.000    
   5    10.00       9.947       9.887       9.812       9.737       9.662       9.587       9.533       9.484       9.441    
        9.407       9.376       9.328       9.256       9.161       9.052       8.967       8.908       8.859       8.806    
        8.757       8.720       8.671       8.603       8.525       8.402       8.276       8.176       8.060       7.775    
        7.270       6.723       6.332       6.070       5.787       5.420       5.002       4.579       4.282       4.008    
        3.729       3.321       2.833       2.482       2.069       1.506      0.9384      0.5452      0.2743       0.000    
   6    10.00       9.935       9.863       9.804       9.734       9.655       9.592       9.544       9.493       9.454    
        9.422       9.384       9.322       9.238       9.156       9.065       8.974       8.900       8.838       8.776    
        8.732       8.692       8.647       8.575       8.460       8.342       8.248       8.139       7.942       7.529    
        6.963       6.466       6.168       5.974       5.746       5.342       4.890       4.560       4.344       4.106    
        3.838       3.472       2.989       2.554       2.043       1.440      0.8414      0.4795      0.2679       0.000    
   7    10.00       9.916       9.849       9.792       9.724       9.667       9.607       9.557       9.514       9.472    
        9.430       9.375       9.300       9.218       9.144       9.069       8.967       8.867       8.800       8.750    
        8.707       8.663       8.617       8.518       8.400       8.306       8.203       8.024       7.686       7.157    
        6.623       6.238       6.057       5.909       5.617       5.215       4.920       4.638       4.407       4.245    
        3.977       3.600       3.085       2.522       1.892       1.200      0.7053      0.4868      0.2466       0.000    
   8    10.00       9.911       9.848       9.787       9.726       9.676       9.624       9.576       9.534       9.494    
        9.433       9.353       9.273       9.202       9.132       9.039       8.917       8.823       8.772       8.724    
        8.674       8.637       8.559       8.452       8.347       8.235       8.037       7.753       7.286       6.829    
        6.436       6.138       6.003       5.822       5.489       5.183       4.940       4.735       4.554       4.365    
        4.088       3.625       3.030       2.389       1.671       1.083      0.7463      0.4775      0.2200       0.000    
   9    10.00       9.915       9.844       9.784       9.741       9.698       9.648       9.600       9.552       9.506    
        9.427       9.329       9.247       9.174       9.089       8.985       8.875       8.792       8.739       8.689    
        8.644       8.583       8.474       8.374       8.264       8.106       7.816       7.387       6.926       6.601    
        6.294       6.082       5.932       5.689       5.385       5.152       4.981       4.829       4.676       4.471    
        4.128       3.646       3.015       2.299       1.638       1.121      0.7614      0.4737      0.2349       0.000    
  10    10.00       9.913       9.841       9.792       9.753       9.712       9.668       9.626       9.570       9.496    
        9.400       9.301       9.220       9.140       9.051       8.930       8.819       8.753       8.707       8.657    
        8.610       8.509       8.391       8.281       8.127       7.885       7.448       6.987       6.630       6.387    
        6.207       6.038       5.832       5.584       5.332       5.160       5.037       4.913       4.741       4.503    
        4.135       3.609       2.935       2.296       1.774       1.285      0.8156      0.5032      0.2653       0.000    
  11    10.00       9.902       9.846       9.805       9.766       9.730       9.690       9.634       9.554       9.470    
        9.374       9.277       9.199       9.092       8.969       8.863       8.785       8.723       8.677       8.621    
        8.536       8.405       8.234       8.070       7.797       7.437       7.051       6.750       6.468       6.298    
        6.148       5.921       5.692       5.510       5.346       5.225       5.104       4.943       4.741       4.461    
        4.117       3.653       2.973       2.391       1.929       1.461      0.9407      0.4992      0.2005       0.000    
  12    10.00       9.910       9.855       9.812       9.779       9.741       9.697       9.620       9.525       9.438    
        9.347       9.250       9.145       9.015       8.914       8.823       8.741       8.690       8.629       8.543    
        8.374       8.149       7.910       7.663       7.325       7.051       6.854       6.544       6.316       6.187    
        6.029       5.816       5.640       5.489       5.387       5.277       5.134       4.953       4.712       4.420    
        4.081       3.628       3.006       2.489       2.072       1.566      0.9911      0.4731      0.1573       0.000    
  13    10.00       9.930       9.879       9.832       9.789       9.745       9.680       9.584       9.485       9.400    
        9.304       9.205       9.095       8.961       8.845       8.754       8.696       8.629       8.543       8.336    
        8.026       7.753       7.495       7.187       6.926       6.806       6.562       6.281       6.169       6.064    
        5.897       5.718       5.595       5.498       5.416       5.315       5.152       4.926       4.691       4.391    
        4.056       3.596       2.955       2.472       2.086       1.533      0.9235      0.4281      0.1237       0.000    
  14    10.00       9.948       9.902       9.852       9.801       9.733       9.638       9.537       9.448       9.351    
        9.255       9.164       9.032       8.881       8.775       8.703       8.606       8.502       8.296       7.931    
        7.601       7.360       7.022       6.773       6.658       6.524       6.272       6.113       5.999       5.897    
        5.759       5.655       5.586       5.512       5.428       5.326       5.143       4.897       4.645       4.340    
        3.982       3.427       2.823       2.433       1.960       1.429      0.9099      0.3907      0.1006       0.000    
  15    10.00       9.959       9.912       9.861       9.802       9.700       9.582       9.493       9.405       9.311    
        9.238       9.132       8.957       8.792       8.695       8.565       8.434       8.301       7.952       7.526    
        7.256       6.915       6.610       6.519       6.452       6.275       6.074       5.919       5.839       5.768    
        5.690       5.635       5.585       5.524       5.437       5.312       5.099       4.819       4.555       4.274    
        3.887       3.347       2.827       2.303       1.729       1.254      0.7819      0.3440      0.1033       0.000    
  16    10.00       9.970       9.924       9.863       9.770       9.644       9.542       9.470       9.390       9.294    
        9.195       9.041       8.838       8.681       8.538       8.385       8.296       8.025       7.519       7.130    
        6.861       6.528       6.418       6.365       6.236       6.013       5.853       5.784       5.765       5.720    
        5.665       5.622       5.582       5.517       5.411       5.255       4.999       4.746       4.539       4.240    
        3.799       3.217       2.618       2.033       1.545       1.074      0.6658      0.3263      0.1101       0.000    
  17    10.00       9.969       9.920       9.840       9.724       9.597       9.512       9.446       9.356       9.247    
        9.082       8.886       8.704       8.531       8.355       8.208       7.986       7.532       7.065       6.799    
        6.537       6.337       6.251       6.126       5.923       5.759       5.720       5.717       5.708       5.672    
        5.632       5.601       5.565       5.502       5.347       5.133       4.915       4.739       4.544       4.167    
        3.577       2.983       2.409       1.835       1.322      0.8694      0.5577      0.2915      0.1198       0.000    
  18    10.00       9.962       9.904       9.808       9.662       9.560       9.493       9.402       9.298       9.146    
        8.945       8.771       8.588       8.355       8.123       7.879       7.556       7.099       6.754       6.523    
        6.312       6.146       6.016       5.836       5.700       5.660       5.652       5.653       5.636       5.610    
        5.592       5.570       5.529       5.420       5.258       5.078       4.898       4.742       4.467       3.961    
        3.358       2.724       2.108       1.636       1.227      0.8148      0.4790      0.2411      0.1156       0.000    
  19    10.00       9.953       9.889       9.748       9.603       9.543       9.468       9.355       9.226       9.062    
        8.879       8.715       8.449       8.095       7.820       7.570       7.182       6.771       6.541       6.365    
        6.148       5.947       5.803       5.667       5.602       5.590       5.587       5.571       5.545       5.541    
        5.535       5.519       5.457       5.353       5.220       5.048       4.886       4.660       4.188       3.660    
        3.172       2.515       1.930       1.553       1.147      0.7353      0.4326      0.2456      0.1258       0.000    
  20    10.00       9.942       9.835       9.690       9.584       9.519       9.437       9.316       9.173       9.023    
        8.835       8.584       8.186       7.836       7.593       7.286       6.903       6.681       6.472       6.229    
        5.991       5.811       5.662       5.567       5.520       5.497       5.469       5.463       5.450       5.460    
        5.465       5.452       5.387       5.294       5.158       5.010       4.809       4.395       3.883       3.461    
        2.929       2.322       1.884       1.520       1.109      0.6529      0.3781      0.2558      0.1318       0.000    
  21    10.00       9.904       9.789       9.667       9.563       9.495       9.406       9.264       9.121       8.980    
        8.727       8.344       7.940       7.678       7.408       7.086       6.804       6.594       6.343       6.087    
        5.860       5.685       5.555       5.455       5.389       5.339       5.322       5.331       5.336       5.354    
        5.375       5.351       5.287       5.202       5.067       4.906       4.589       4.154       3.750       3.238    
        2.733       2.253       1.882       1.514      0.9355      0.5294      0.3830      0.2890      0.1386       0.000    
  22    10.00       9.879       9.741       9.632       9.549       9.466       9.341       9.209       9.083       8.886    
        8.562       8.130       7.812       7.576       7.274       6.945       6.676       6.455       6.227       5.985    
        5.761       5.576       5.402       5.247       5.160       5.141       5.158       5.172       5.210       5.235    
        5.259       5.232       5.180       5.092       4.960       4.800       4.478       4.062       3.534       3.037    
        2.671       2.288       1.841       1.223      0.7313      0.5283      0.4017      0.2676      9.9016E-02   0.000    
  23    10.00       9.844       9.708       9.623       9.535       9.411       9.274       9.176       9.016       8.770    
        8.392       8.025       7.796       7.501       7.110       6.784       6.574       6.395       6.182       5.923    
        5.686       5.470       5.221       4.931       4.718       4.761       4.897       4.986       5.066       5.121    
        5.144       5.133       5.087       5.005       4.882       4.703       4.379       3.865       3.335       2.984    
        2.647       2.164       1.521      0.9885      0.7205      0.5392      0.3859      0.2278      9.0694E-02   0.000    
  24    10.00       9.819       9.722       9.619       9.494       9.364       9.259       9.150       8.997       8.672    
        8.319       8.047       7.788       7.395       6.967       6.734       6.556       6.380       6.139       5.895    
        5.684       5.410       5.012       4.462       3.791       4.062       4.469       4.752       4.920       5.006    
        5.051       5.048       5.015       4.925       4.787       4.560       4.149       3.661       3.264       2.900    
        2.485       1.944       1.368      0.9598      0.7226      0.5259      0.3525      0.2471      0.1213       0.000    
  25    10.00       9.840       9.740       9.610       9.480       9.361       9.257       9.156       8.927       8.613    
        8.340       8.066       7.726       7.296       6.979       6.769       6.568       6.356       6.136       5.926    
        5.684       5.421       4.853       3.807       1.949       3.327       4.073       4.517       4.792       4.936    
        4.991       4.994       4.953       4.827       4.636       4.324       3.934       3.550       3.210       2.783    
        2.282       1.765       1.278      0.9525      0.7497      0.5470      0.3717      0.2589      0.1612       0.000    
  26    10.00       9.861       9.764       9.628       9.488       9.380       9.269       9.121       8.895       8.676    
        8.421       8.045       7.631       7.283       7.043       6.837       6.604       6.343       6.130       5.954    
        5.753       5.492       5.001       4.230       3.377       3.730       4.178       4.508       4.762       4.920    
        4.967       4.958       4.884       4.733       4.520       4.222       3.790       3.423       3.103       2.582    
        2.013       1.558       1.267       1.040      0.8088      0.5908      0.4054      0.2814      0.1645       0.000    
  27    10.00       9.890       9.770       9.648       9.527       9.400       9.276       9.127       8.941       8.740    
        8.419       7.997       7.634       7.345       7.142       6.906       6.602       6.330       6.163       6.019    
        5.860       5.619       5.246       4.789       4.324       4.289       4.457       4.667       4.856       4.950    
        4.965       4.940       4.852       4.684       4.434       4.029       3.620       3.314       2.822       2.270    
        1.825       1.531       1.311       1.113      0.8845      0.6451      0.4406      0.3099      0.1955       0.000    
  28    10.00       9.897       9.799       9.689       9.571       9.436       9.299       9.156       8.994       8.760    
        8.386       8.019       7.702       7.418       7.203       6.972       6.723       6.459       6.222       6.071    
        5.945       5.773       5.530       5.196       4.910       4.739       4.770       4.903       4.968       4.996    
        4.981       4.934       4.824       4.607       4.274       3.850       3.491       3.057       2.540       2.144    
        1.824       1.574       1.359       1.152      0.9297      0.7042      0.5001      0.3531      0.2018       0.000    
  29    10.00       9.905       9.809       9.722       9.607       9.486       9.353       9.205       9.027       8.717    
        8.368       8.058       7.758       7.518       7.273       7.028       6.802       6.589       6.360       6.160    
        6.024       5.891       5.730       5.529       5.256       5.119       5.100       5.105       5.108       5.072    
        5.012       4.917       4.781       4.502       4.086       3.703       3.333       2.875       2.457       2.165    
        1.904       1.630       1.385       1.187      0.9866      0.7453      0.5288      0.3692      0.2048       0.000    
  30    10.00       9.918       9.838       9.763       9.660       9.540       9.420       9.253       9.015       8.733    
        8.382       8.046       7.801       7.562       7.331       7.108       6.925       6.727       6.503       6.292    
        6.122       6.009       5.872       5.735       5.585       5.462       5.419       5.324       5.263       5.166    
        5.038       4.872       4.672       4.372       4.036       3.671       3.272       2.838       2.519       2.250    
        1.940       1.664       1.451       1.225      0.9860      0.7720      0.5641      0.3924      0.2205       0.000    
  31    10.00       9.935       9.870       9.798       9.722       9.625       9.490       9.283       9.014       8.716    
        8.380       8.079       7.855       7.622       7.407       7.203       7.020       6.865       6.641       6.427    
        6.272       6.151       6.043       5.938       5.862       5.749       5.627       5.521       5.389       5.238    
        5.034       4.810       4.598       4.345       4.021       3.631       3.222       2.862       2.633       2.378    
        2.033       1.729       1.486       1.256       1.033      0.8130      0.5983      0.4133      0.2140       0.000    
  32    10.00       9.944       9.898       9.835       9.763       9.672       9.529       9.294       9.049       8.768    
        8.421       8.143       7.932       7.693       7.466       7.300       7.139       6.956       6.776       6.566    
        6.406       6.277       6.182       6.096       6.007       5.915       5.771       5.639       5.480       5.273    
        5.030       4.796       4.566       4.318       3.998       3.644       3.322       3.012       2.749       2.458    
        2.140       1.838       1.581       1.315       1.072      0.8853      0.6607      0.4061      0.1814       0.000    
  33    10.00       9.953       9.917       9.864       9.791       9.695       9.510       9.279       9.082       8.832    
        8.514       8.251       8.003       7.737       7.538       7.397       7.257       7.069       6.871       6.692    
        6.514       6.385       6.270       6.173       6.093       6.001       5.861       5.686       5.521       5.319    
        5.072       4.851       4.606       4.293       3.990       3.672       3.410       3.165       2.869       2.548    
        2.271       1.984       1.701       1.426       1.170      0.9603      0.7083      0.4090      0.1778       0.000    
  34    10.00       9.961       9.934       9.889       9.795       9.656       9.487       9.327       9.123       8.876    
        8.608       8.323       8.048       7.790       7.625       7.507       7.358       7.179       6.957       6.787    
        6.630       6.470       6.346       6.247       6.167       6.058       5.900       5.732       5.550       5.319    
        5.102       4.914       4.677       4.371       4.062       3.765       3.515       3.274       2.966       2.672    
        2.423       2.146       1.836       1.561       1.301       1.060      0.7590      0.4610      0.2417       0.000    
  35    10.00       9.968       9.934       9.872       9.758       9.623       9.502       9.364       9.202       8.936    
        8.645       8.364       8.089       7.873       7.724       7.600       7.443       7.256       7.043       6.842    
        6.695       6.547       6.421       6.326       6.238       6.126       5.949       5.749       5.537       5.297    
        5.130       4.941       4.695       4.470       4.207       3.891       3.611       3.406       3.111       2.793    
        2.552       2.268       1.957       1.687       1.415       1.151      0.8708      0.5772      0.2855       0.000    
  36    10.00       9.961       9.908       9.841       9.735       9.610       9.510       9.394       9.220       8.968    
        8.654       8.360       8.164       7.996       7.848       7.692       7.508       7.321       7.102       6.853    
        6.692       6.580       6.468       6.388       6.297       6.159       5.965       5.744       5.488       5.263    
        5.115       4.961       4.743       4.522       4.301       4.017       3.734       3.512       3.247       2.899    
        2.634       2.318       2.006       1.800       1.536       1.242      0.9608      0.6540      0.3200       0.000    
  37    10.00       9.941       9.886       9.819       9.716       9.608       9.495       9.386       9.228       8.939    
        8.616       8.389       8.271       8.111       7.929       7.776       7.557       7.330       7.064       6.816    
        6.697       6.604       6.496       6.412       6.309       6.145       5.948       5.671       5.432       5.275    
        5.138       4.967       4.751       4.575       4.348       4.078       3.856       3.641       3.343       2.961    
        2.612       2.315       2.098       1.883       1.619       1.340       1.059      0.7213      0.3961       0.000    
  38    10.00       9.934       9.863       9.794       9.705       9.603       9.486       9.367       9.190       8.920    
        8.678       8.497       8.345       8.203       8.011       7.772       7.531       7.277       6.985       6.810    
        6.713       6.596       6.493       6.419       6.307       6.117       5.834       5.570       5.436       5.312    
        5.167       4.985       4.786       4.610       4.387       4.139       3.956       3.738       3.357       2.936    
        2.633       2.384       2.169       1.947       1.713       1.430       1.149      0.8342      0.4123       0.000    
  39    10.00       9.916       9.848       9.786       9.701       9.587       9.464       9.344       9.178       8.958    
        8.769       8.630       8.462       8.270       8.007       7.716       7.447       7.156       6.944       6.825    
        6.690       6.557       6.477       6.408       6.302       6.055       5.761       5.591       5.465       5.337    
        5.174       5.000       4.808       4.630       4.460       4.255       4.014       3.749       3.374       2.981    
        2.661       2.404       2.234       2.048       1.785       1.504       1.220      0.8682      0.4068       0.000    
  40    10.00       9.908       9.843       9.780       9.694       9.578       9.459       9.341       9.193       9.011    
        8.855       8.735       8.537       8.250       7.928       7.637       7.353       7.101       6.941       6.802    
        6.648       6.530       6.458       6.377       6.236       6.018       5.812       5.637       5.494       5.361    
        5.201       5.012       4.829       4.680       4.530       4.322       4.044       3.766       3.384       2.963    
        2.663       2.459       2.272       2.113       1.836       1.529       1.269      0.8705      0.4053       0.000    
  41    10.00       9.917       9.842       9.768       9.676       9.585       9.486       9.376       9.231       9.066    
        8.918       8.777       8.532       8.198       7.866       7.593       7.313       7.069       6.915       6.766    
        6.612       6.507       6.431       6.334       6.187       6.019       5.877       5.706       5.527       5.371    
        5.217       5.045       4.868       4.737       4.577       4.370       4.092       3.708       3.269       2.945    
        2.727       2.529       2.336       2.115       1.826       1.532       1.309      0.9272      0.4205       0.000    
  42    10.00       9.917       9.833       9.768       9.701       9.617       9.512       9.388       9.265       9.139    
        8.956       8.721       8.439       8.122       7.815       7.565       7.292       7.051       6.887       6.720    
        6.576       6.483       6.400       6.311       6.174       6.055       5.933       5.741       5.541       5.399    
        5.271       5.082       4.893       4.766       4.617       4.396       4.054       3.601       3.199       2.957    
        2.792       2.616       2.370       2.075       1.798       1.568       1.337      0.9779      0.4825       0.000    
  43    10.00       9.910       9.840       9.784       9.731       9.651       9.548       9.431       9.296       9.108    
        8.878       8.638       8.374       8.044       7.767       7.536       7.291       7.049       6.842       6.686    
        6.554       6.461       6.389       6.315       6.197       6.072       5.949       5.751       5.575       5.470    
        5.314       5.110       4.926       4.795       4.622       4.336       3.939       3.510       3.217       3.031    
        2.856       2.653       2.351       2.049       1.804       1.582       1.383      0.9916      0.4532       0.000    
  44    10.00       9.910       9.849       9.799       9.736       9.676       9.592       9.438       9.243       9.029    
        8.836       8.593       8.275       8.000       7.776       7.512       7.244       6.993       6.786       6.649    
        6.551       6.469       6.395       6.317       6.216       6.087       5.922       5.757       5.637       5.512    
        5.371       5.193       4.983       4.783       4.572       4.251       3.835       3.482       3.255       3.075    
        2.899       2.658       2.366       2.104       1.843       1.605       1.361      0.8953      0.4117       0.000    
  45    10.00       9.920       9.863       9.799       9.738       9.686       9.551       9.371       9.174       8.990    
        8.832       8.509       8.179       7.978       7.741       7.449       7.158       6.925       6.757       6.646    
        6.571       6.492       6.410       6.318       6.206       6.080       5.940       5.812       5.707       5.576    
        5.414       5.229       5.013       4.760       4.507       4.162       3.772       3.493       3.320       3.135    
        2.900       2.625       2.374       2.135       1.904       1.667       1.271      0.7957      0.4005       0.000    
  46    10.00       9.936       9.875       9.800       9.730       9.629       9.483       9.347       9.183       8.985    
        8.725       8.419       8.155       7.900       7.648       7.366       7.096       6.923       6.784       6.676    
        6.600       6.525       6.421       6.305       6.197       6.090       5.979       5.861       5.755       5.640    
        5.494       5.299       5.053       4.753       4.393       4.034       3.745       3.547       3.367       3.174    
        2.896       2.602       2.353       2.164       1.942       1.633       1.183      0.7601      0.3747       0.000    
  47    10.00       9.948       9.891       9.816       9.697       9.564       9.440       9.333       9.182       8.924    
        8.612       8.331       8.102       7.889       7.621       7.314       7.075       6.911       6.800       6.710    
        6.628       6.540       6.432       6.310       6.203       6.118       6.026       5.909       5.788       5.675    
        5.547       5.384       5.058       4.638       4.286       4.027       3.784       3.615       3.455       3.189    
        2.849       2.538       2.312       2.182       1.937       1.559       1.119      0.7334      0.3705       0.000    
  48    10.00       9.953       9.895       9.784       9.662       9.547       9.422       9.314       9.162       8.871    
        8.531       8.296       8.107       7.847       7.535       7.258       7.078       6.913       6.803       6.733    
        6.649       6.543       6.427       6.315       6.226       6.159       6.076       5.948       5.807       5.685    
        5.551       5.355       5.016       4.667       4.352       4.067       3.850       3.676       3.473       3.134    
        2.769       2.529       2.349       2.118       1.796       1.461       1.084      0.7388      0.3911       0.000    
  49    10.00       9.951       9.862       9.756       9.664       9.541       9.419       9.306       9.114       8.805    
        8.501       8.277       8.041       7.779       7.543       7.285       7.035       6.881       6.814       6.748    
        6.669       6.547       6.412       6.315       6.247       6.197       6.102       5.954       5.806       5.695    
        5.550       5.292       4.993       4.746       4.482       4.168       3.888       3.673       3.433       3.070    
        2.776       2.565       2.317       1.983       1.698       1.396       1.066      0.7511      0.3825       0.000    
  50    10.00       9.938       9.841       9.743       9.669       9.555       9.420       9.275       9.068       8.824    
        8.517       8.216       7.971       7.761       7.572       7.282       6.998       6.881       6.822       6.759    
        6.683       6.546       6.401       6.313       6.259       6.213       6.107       5.948       5.806       5.693    
        5.535       5.264       5.034       4.822       4.537       4.224       3.941       3.656       3.310       2.988    
        2.832       2.611       2.248       1.913       1.674       1.385       1.099      0.7337      0.3014       0.000    

 HEAD WILL BE SAVED ON UNIT   51 AT END OF TIME STEP  81, STRESS PERIOD    2

 DRAWDOWN WILL BE SAVED ON UNIT   52 AT END OF TIME STEP  81, STRESS PERIOD    2
1
  VOLUMETRIC BUDGET FOR ENTIRE MODEL AT END OF TIME STEP 81 IN STRESS PERIOD   2
  ------------------------------------------------------------------------------

     CUMULATIVE VOLUMES      L**3       RATES FOR THIS TIME STEP      L**3/T
     ------------------                 ------------------------

           IN:                                      IN:
           ---                                      ---
             STORAGE =       37733.8477               STORAGE =         398.6457
       CONSTANT HEAD =       46893.0547         CONSTANT HEAD =         633.3647
               WELLS =           0.0000                 WELLS =           0.0000

            TOTAL IN =       84626.9062              TOTAL IN =        1032.0104

          OUT:                                     OUT:
          ----                                     ----
             STORAGE =       9.3745E-03               STORAGE =           0.0000
       CONSTANT HEAD =       44126.8750         CONSTANT HEAD =         532.0104
               WELLS =       40500.0000                 WELLS =         500.0000

           TOTAL OUT =       84626.8828             TOTAL OUT =        1032.0105

            IN - OUT =       2.3438E-02              IN - OUT =      -1.2207E-04

 PERCENT DISCREPANCY =           0.00     PERCENT DISCREPANCY =           0.00






          TIME SUMMARY AT END OF TIME STEP  81 IN STRESS PERIOD    2
                    SECONDS     MINUTES      HOURS       DAYS        YEARS
                    -----------------------------------------------------------
   TIME STEP LENGTH  86400.      1440.0      24.000      1.0000     2.73785E-03
 STRESS PERIOD TIME 6.99840E+06 1.16640E+05  1944.0      81.000     0.22177    
         TOTAL TIME 7.08480E+06 1.18080E+05  1968.0      82.000     0.22450    
1
 
 SOLVING FOR HEAD 

 OUTPUT CONTROL FOR STRESS PERIOD    2   TIME STEP  82
    SAVE HEAD FOR ALL LAYERS
    SAVE DRAWDOWN FOR ALL LAYERS
    SAVE BUDGET
    PRINT HEAD FOR ALL LAYERS
    PRINT BUDGET
 UBDSV1 SAVING "         STORAGE" ON UNIT  53 AT TIME STEP 82, STRESS PERIOD   2
 UBDSV2 SAVING "   CONSTANT HEAD" ON UNIT  53 AT TIME STEP 82, STRESS PERIOD   2
 UBDSV1 SAVING "FLOW RIGHT FACE " ON UNIT  53 AT TIME STEP 82, STRESS PERIOD   2
 UBDSV1 SAVING "FLOW FRONT FACE " ON UNIT  53 AT TIME STEP 82, STRESS PERIOD   2
1
              HEAD IN LAYER   1 AT END OF TIME STEP  82 IN STRESS PERIOD    2
  ---------------------------------------------------------------------------

            1           2           3           4           5           6           7           8           9          10
           11          12          13          14          15          16          17          18          19          20
           21          22          23          24          25          26          27          28          29          30
           31          32          33          34          35          36          37          38          39          40
           41          42          43          44          45          46          47          48          49          50
 ........................................................................................................................
   1    10.00       9.952       9.886       9.821       9.767       9.700       9.635       9.567       9.475       9.400    
        9.356       9.312       9.264       9.215       9.138       9.053       8.961       8.889       8.857       8.821    
        8.778       8.741       8.703       8.657       8.592       8.479       8.345       8.214       8.065       7.917    
        7.707       7.374       6.982       6.570       6.109       5.683       5.323       4.989       4.534       4.040    
        3.621       3.207       2.637       2.097       1.718       1.339       1.022      0.8163      0.5414       0.000    
   2    10.00       9.951       9.893       9.827       9.769       9.708       9.635       9.546       9.458       9.400    
        9.361       9.321       9.284       9.224       9.135       9.047       8.962       8.892       8.857       8.817    
        8.773       8.744       8.714       8.665       8.590       8.482       8.346       8.210       8.070       7.923    
        7.696       7.352       6.939       6.473       6.007       5.597       5.275       4.948       4.486       4.023    
        3.600       3.103       2.589       2.162       1.787       1.434       1.071      0.7752      0.4139       0.000    
   3    10.00       9.947       9.890       9.830       9.771       9.701       9.611       9.525       9.469       9.417    
        9.371       9.337       9.300       9.243       9.154       9.045       8.956       8.898       8.854       8.813    
        8.777       8.746       8.716       8.653       8.572       8.463       8.334       8.231       8.082       7.908    
        7.614       7.213       6.771       6.317       5.891       5.512       5.226       4.888       4.387       3.936    
        3.585       3.135       2.663       2.254       1.865       1.509       1.081      0.6649      0.2925       0.000    
   4    10.00       9.951       9.893       9.828       9.755       9.674       9.587       9.524       9.477       9.427    
        9.387       9.358       9.317       9.256       9.174       9.054       8.955       8.901       8.854       8.816    
        8.774       8.737       8.699       8.631       8.549       8.442       8.316       8.199       8.083       7.863    
        7.481       6.988       6.514       6.166       5.852       5.487       5.120       4.690       4.267       3.941    
        3.631       3.234       2.764       2.362       1.954       1.524       1.031      0.5903      0.2750       0.000    
   5    10.00       9.947       9.887       9.812       9.736       9.661       9.585       9.532       9.482       9.439    
        9.405       9.374       9.326       9.254       9.158       9.049       8.964       8.905       8.856       8.803    
        8.753       8.716       8.667       8.599       8.521       8.398       8.272       8.172       8.056       7.771    
        7.265       6.718       6.327       6.065       5.782       5.416       4.997       4.574       4.278       4.004    
        3.725       3.318       2.830       2.480       2.067       1.504      0.9375      0.5447      0.2741       0.000    
   6    10.00       9.935       9.862       9.804       9.733       9.654       9.591       9.542       9.491       9.452    
        9.420       9.382       9.320       9.236       9.153       9.063       8.971       8.897       8.834       8.772    
        8.729       8.688       8.644       8.571       8.456       8.338       8.244       8.135       7.938       7.524    
        6.957       6.461       6.162       5.968       5.740       5.337       4.885       4.555       4.339       4.101    
        3.835       3.468       2.986       2.552       2.041       1.438      0.8407      0.4790      0.2677       0.000    
   7    10.00       9.916       9.848       9.791       9.723       9.666       9.606       9.555       9.512       9.470    
        9.428       9.373       9.298       9.216       9.142       9.067       8.964       8.863       8.796       8.746    
        8.703       8.659       8.613       8.514       8.396       8.302       8.198       8.020       7.681       7.152    
        6.617       6.232       6.051       5.903       5.611       5.209       4.915       4.633       4.402       4.241    
        3.973       3.597       3.082       2.520       1.890       1.199      0.7046      0.4864      0.2463       0.000    
   8    10.00       9.911       9.848       9.786       9.725       9.675       9.623       9.575       9.533       9.492    
        9.431       9.351       9.271       9.200       9.129       9.036       8.914       8.819       8.768       8.720    
        8.670       8.633       8.555       8.448       8.342       8.231       8.032       7.748       7.280       6.822    
        6.429       6.131       5.997       5.815       5.483       5.176       4.934       4.729       4.549       4.360    
        4.084       3.621       3.027       2.386       1.669       1.082      0.7456      0.4771      0.2198       0.000    
   9    10.00       9.915       9.844       9.783       9.740       9.697       9.647       9.599       9.551       9.504    
        9.425       9.327       9.244       9.171       9.087       8.982       8.871       8.788       8.736       8.685    
        8.640       8.579       8.469       8.370       8.260       8.101       7.810       7.381       6.920       6.594    
        6.287       6.075       5.925       5.682       5.379       5.145       4.975       4.823       4.670       4.465    
        4.123       3.642       3.012       2.297       1.637       1.120      0.7607      0.4733      0.2347       0.000    
  10    10.00       9.913       9.841       9.791       9.752       9.711       9.667       9.625       9.569       9.494    
        9.398       9.298       9.218       9.138       9.048       8.926       8.816       8.749       8.703       8.653    
        8.606       8.505       8.387       8.276       8.122       7.880       7.442       6.980       6.623       6.379    
        6.200       6.030       5.825       5.577       5.325       5.153       5.031       4.906       4.736       4.497    
        4.131       3.605       2.932       2.293       1.772       1.283      0.8149      0.5028      0.2650       0.000    
  11    10.00       9.902       9.846       9.804       9.765       9.729       9.689       9.632       9.552       9.468    
        9.372       9.274       9.197       9.089       8.966       8.860       8.781       8.719       8.673       8.617    
        8.532       8.400       8.229       8.064       7.791       7.430       7.044       6.743       6.461       6.290    
        6.140       5.913       5.684       5.502       5.339       5.218       5.097       4.937       4.735       4.456    
        4.112       3.648       2.970       2.389       1.928       1.459      0.9399      0.4988      0.2003       0.000    
  12    10.00       9.910       9.855       9.811       9.778       9.740       9.696       9.618       9.523       9.436    
        9.345       9.247       9.142       9.012       8.910       8.819       8.737       8.686       8.625       8.539    
        8.369       8.143       7.904       7.656       7.318       7.043       6.846       6.536       6.307       6.178    
        6.020       5.808       5.631       5.481       5.380       5.270       5.127       4.946       4.705       4.414    
        4.076       3.624       3.003       2.486       2.070       1.565      0.9903      0.4727      0.1572       0.000    
  13    10.00       9.930       9.878       9.831       9.789       9.744       9.679       9.583       9.484       9.398    
        9.301       9.203       9.092       8.957       8.841       8.750       8.691       8.624       8.539       8.331    
        8.020       7.746       7.488       7.179       6.918       6.798       6.553       6.272       6.160       6.055    
        5.888       5.709       5.586       5.489       5.408       5.307       5.145       4.920       4.684       4.385    
        4.051       3.592       2.952       2.469       2.084       1.532      0.9227      0.4277      0.1236       0.000    
  14    10.00       9.948       9.902       9.851       9.800       9.732       9.636       9.535       9.446       9.348    
        9.252       9.161       9.028       8.877       8.771       8.699       8.602       8.497       8.290       7.925    
        7.594       7.352       7.014       6.764       6.649       6.515       6.263       6.104       5.989       5.888    
        5.750       5.646       5.577       5.503       5.420       5.318       5.135       4.889       4.638       4.334    
        3.976       3.422       2.820       2.431       1.958       1.427      0.9090      0.3904      0.1005       0.000    
  15    10.00       9.959       9.912       9.861       9.801       9.699       9.580       9.491       9.402       9.308    
        9.235       9.128       8.953       8.788       8.690       8.560       8.428       8.295       7.946       7.519    
        7.248       6.906       6.600       6.510       6.442       6.265       6.064       5.909       5.829       5.758    
        5.680       5.626       5.576       5.515       5.428       5.303       5.091       4.812       4.548       4.268    
        3.882       3.343       2.824       2.300       1.727       1.252      0.7812      0.3437      0.1032       0.000    
  16    10.00       9.970       9.923       9.862       9.769       9.642       9.540       9.468       9.388       9.291    
        9.192       9.037       8.834       8.676       8.533       8.379       8.290       8.018       7.512       7.122    
        6.851       6.518       6.408       6.355       6.226       6.002       5.842       5.773       5.754       5.709    
        5.655       5.613       5.573       5.508       5.402       5.246       4.991       4.739       4.532       4.233    
        3.794       3.213       2.615       2.031       1.544       1.073      0.6651      0.3260      0.1100       0.000    
  17    10.00       9.969       9.920       9.839       9.723       9.596       9.510       9.444       9.354       9.244    
        9.078       8.882       8.699       8.526       8.349       8.201       7.979       7.524       7.056       6.790    
        6.527       6.327       6.240       6.115       5.912       5.748       5.709       5.707       5.698       5.661    
        5.622       5.591       5.555       5.492       5.338       5.125       4.907       4.732       4.537       4.160    
        3.572       2.979       2.407       1.833       1.321      0.8685      0.5572      0.2913      0.1197       0.000    
  18    10.00       9.962       9.904       9.807       9.660       9.558       9.491       9.400       9.295       9.142    
        8.941       8.766       8.583       8.349       8.117       7.871       7.548       7.090       6.744       6.513    
        6.302       6.136       6.005       5.825       5.689       5.649       5.641       5.642       5.625       5.600    
        5.581       5.560       5.519       5.410       5.248       5.069       4.889       4.734       4.460       3.955    
        3.353       2.720       2.106       1.634       1.225      0.8140      0.4785      0.2409      0.1155       0.000    
  19    10.00       9.953       9.889       9.747       9.601       9.541       9.465       9.352       9.223       9.058    
        8.875       8.710       8.443       8.088       7.813       7.562       7.173       6.761       6.530       6.355    
        6.138       5.936       5.792       5.656       5.591       5.579       5.576       5.559       5.534       5.530    
        5.524       5.508       5.447       5.343       5.210       5.038       4.878       4.653       4.181       3.655    
        3.167       2.512       1.927       1.552       1.146      0.7345      0.4322      0.2453      0.1257       0.000    
  20    10.00       9.942       9.834       9.688       9.582       9.517       9.434       9.313       9.169       9.019    
        8.830       8.579       8.179       7.828       7.585       7.277       6.893       6.671       6.461       6.218    
        5.980       5.800       5.651       5.556       5.509       5.486       5.457       5.452       5.439       5.449    
        5.454       5.441       5.376       5.283       5.148       5.001       4.800       4.388       3.877       3.456    
        2.925       2.319       1.881       1.518       1.108      0.6522      0.3778      0.2555      0.1317       0.000    
  21    10.00       9.904       9.788       9.666       9.561       9.492       9.403       9.261       9.118       8.975    
        8.722       8.337       7.933       7.670       7.399       7.076       6.794       6.584       6.332       6.076    
        5.849       5.674       5.544       5.444       5.377       5.327       5.311       5.320       5.324       5.342    
        5.364       5.340       5.276       5.191       5.057       4.896       4.581       4.147       3.744       3.233    
        2.729       2.250       1.880       1.512      0.9346      0.5289      0.3826      0.2888      0.1385       0.000    
  22    10.00       9.879       9.739       9.630       9.547       9.464       9.338       9.205       9.079       8.881    
        8.556       8.123       7.804       7.567       7.265       6.935       6.666       6.444       6.216       5.974    
        5.750       5.564       5.391       5.236       5.149       5.129       5.146       5.160       5.198       5.223    
        5.247       5.220       5.169       5.081       4.950       4.790       4.470       4.055       3.528       3.033    
        2.667       2.285       1.839       1.222      0.7306      0.5278      0.4013      0.2673      9.8929E-02   0.000    
  23    10.00       9.843       9.707       9.621       9.533       9.408       9.271       9.172       9.012       8.765    
        8.386       8.017       7.788       7.492       7.101       6.774       6.564       6.384       6.171       5.912    
        5.675       5.458       5.210       4.919       4.707       4.749       4.885       4.974       5.054       5.109    
        5.132       5.121       5.076       4.994       4.872       4.693       4.371       3.858       3.330       2.980    
        2.644       2.161       1.519      0.9875      0.7198      0.5387      0.3856      0.2276      9.0619E-02   0.000    
  24    10.00       9.818       9.720       9.617       9.491       9.361       9.256       9.146       8.992       8.666    
        8.312       8.039       7.780       7.386       6.957       6.723       6.546       6.369       6.128       5.884    
        5.673       5.398       5.000       4.450       3.779       4.050       4.456       4.739       4.907       4.994    
        5.039       5.036       5.003       4.914       4.776       4.550       4.141       3.654       3.259       2.895    
        2.482       1.942       1.367      0.9590      0.7220      0.5254      0.3522      0.2469      0.1212       0.000    
  25    10.00       9.839       9.739       9.608       9.477       9.358       9.253       9.153       8.922       8.607    
        8.334       8.058       7.718       7.287       6.969       6.759       6.558       6.346       6.125       5.915    
        5.673       5.409       4.841       3.795       1.936       3.315       4.060       4.504       4.779       4.924    
        4.979       4.982       4.941       4.816       4.626       4.315       3.926       3.544       3.205       2.779    
        2.280       1.763       1.277      0.9517      0.7491      0.5465      0.3714      0.2587      0.1611       0.000    
  26    10.00       9.861       9.763       9.626       9.486       9.378       9.266       9.118       8.891       8.671    
        8.415       8.038       7.623       7.274       7.033       6.827       6.594       6.333       6.119       5.943    
        5.742       5.481       4.989       4.218       3.365       3.717       4.165       4.496       4.750       4.908    
        4.954       4.946       4.873       4.722       4.510       4.213       3.783       3.418       3.098       2.578    
        2.011       1.556       1.266       1.039      0.8082      0.5903      0.4051      0.2812      0.1643       0.000    
  27    10.00       9.889       9.769       9.646       9.525       9.397       9.273       9.123       8.936       8.735    
        8.413       7.990       7.626       7.336       7.133       6.896       6.592       6.320       6.153       6.008    
        5.849       5.608       5.234       4.777       4.312       4.277       4.445       4.654       4.843       4.937    
        4.952       4.928       4.840       4.674       4.425       4.021       3.613       3.308       2.818       2.267    
        1.823       1.529       1.310       1.112      0.8838      0.6446      0.4403      0.3097      0.1954       0.000    
  28    10.00       9.897       9.798       9.687       9.569       9.434       9.296       9.152       8.990       8.755    
        8.380       8.012       7.694       7.409       7.193       6.963       6.713       6.449       6.211       6.061    
        5.934       5.761       5.519       5.185       4.898       4.727       4.757       4.890       4.956       4.983    
        4.968       4.923       4.813       4.597       4.265       3.843       3.485       3.052       2.537       2.141    
        1.823       1.573       1.358       1.151      0.9290      0.7037      0.4997      0.3528      0.2017       0.000    
  29    10.00       9.904       9.808       9.721       9.605       9.484       9.350       9.202       9.023       8.712    
        8.362       8.051       7.750       7.509       7.264       7.018       6.792       6.579       6.350       6.150    
        6.013       5.880       5.719       5.518       5.244       5.107       5.088       5.092       5.095       5.060    
        5.001       4.906       4.771       4.493       4.078       3.697       3.328       2.871       2.455       2.162    
        1.902       1.628       1.384       1.186      0.9859      0.7448      0.5284      0.3690      0.2046       0.000    
  30    10.00       9.917       9.838       9.762       9.658       9.538       9.418       9.250       9.012       8.729    
        8.376       8.039       7.793       7.554       7.322       7.099       6.916       6.717       6.493       6.281    
        6.112       5.999       5.861       5.724       5.573       5.451       5.407       5.312       5.251       5.155    
        5.027       4.862       4.663       4.364       4.030       3.665       3.268       2.835       2.516       2.248    
        1.938       1.663       1.450       1.224      0.9853      0.7715      0.5637      0.3921      0.2204       0.000    
  31    10.00       9.935       9.869       9.797       9.721       9.624       9.488       9.280       9.010       8.711    
        8.374       8.073       7.848       7.614       7.399       7.194       7.011       6.856       6.631       6.417    
        6.262       6.140       6.032       5.927       5.851       5.738       5.616       5.510       5.378       5.228    
        5.024       4.802       4.590       4.339       4.015       3.626       3.219       2.859       2.631       2.376    
        2.032       1.728       1.485       1.255       1.033      0.8126      0.5980      0.4130      0.2139       0.000    
  32    10.00       9.944       9.897       9.835       9.762       9.671       9.527       9.291       9.046       8.764    
        8.415       8.137       7.925       7.685       7.458       7.291       7.131       6.947       6.767       6.556    
        6.396       6.267       6.172       6.085       5.997       5.905       5.760       5.628       5.470       5.263    
        5.022       4.789       4.559       4.312       3.993       3.640       3.319       3.009       2.747       2.456    
        2.138       1.837       1.580       1.315       1.072      0.8849      0.6604      0.4059      0.1813       0.000    
  33    10.00       9.953       9.916       9.863       9.790       9.694       9.509       9.277       9.079       8.827    
        8.509       8.245       7.996       7.730       7.531       7.389       7.249       7.061       6.862       6.683    
        6.505       6.375       6.261       6.164       6.083       5.991       5.851       5.677       5.512       5.311    
        5.065       4.845       4.600       4.288       3.985       3.668       3.407       3.162       2.867       2.546    
        2.270       1.983       1.700       1.425       1.169      0.9599      0.7080      0.4088      0.1778       0.000    
  34    10.00       9.961       9.933       9.889       9.795       9.655       9.485       9.325       9.120       8.872    
        8.603       8.317       8.042       7.783       7.618       7.500       7.350       7.171       6.949       6.778    
        6.621       6.461       6.337       6.238       6.158       6.049       5.891       5.724       5.542       5.312    
        5.096       4.908       4.671       4.366       4.058       3.761       3.512       3.272       2.964       2.670    
        2.421       2.145       1.835       1.561       1.301       1.060      0.7588      0.4608      0.2416       0.000    
  35    10.00       9.968       9.934       9.872       9.757       9.622       9.501       9.362       9.199       8.933    
        8.640       8.358       8.083       7.867       7.717       7.593       7.435       7.248       7.035       6.834    
        6.686       6.539       6.413       6.318       6.229       6.118       5.941       5.741       5.530       5.291    
        5.125       4.936       4.691       4.466       4.204       3.888       3.609       3.404       3.109       2.792    
        2.551       2.267       1.956       1.686       1.415       1.151      0.8705      0.5770      0.2855       0.000    
  36    10.00       9.961       9.908       9.840       9.734       9.609       9.509       9.392       9.217       8.965    
        8.650       8.355       8.159       7.990       7.842       7.686       7.501       7.314       7.095       6.846    
        6.684       6.573       6.460       6.380       6.290       6.151       5.958       5.738       5.483       5.259    
        5.111       4.957       4.739       4.519       4.298       4.014       3.732       3.510       3.245       2.898    
        2.633       2.317       2.006       1.799       1.535       1.242      0.9606      0.6538      0.3199       0.000    
  37    10.00       9.941       9.885       9.818       9.715       9.607       9.494       9.384       9.226       8.936    
        8.612       8.385       8.266       8.106       7.923       7.770       7.551       7.323       7.057       6.810    
        6.691       6.598       6.490       6.405       6.302       6.138       5.942       5.666       5.428       5.271    
        5.134       4.964       4.748       4.572       4.345       4.076       3.854       3.639       3.341       2.960    
        2.611       2.314       2.098       1.883       1.619       1.340       1.059      0.7211      0.3960       0.000    
  38    10.00       9.934       9.863       9.793       9.704       9.602       9.484       9.366       9.188       8.917    
        8.675       8.493       8.341       8.198       8.006       7.766       7.526       7.272       6.979       6.805    
        6.708       6.591       6.488       6.413       6.302       6.112       5.829       5.566       5.432       5.309    
        5.163       4.982       4.783       4.608       4.385       4.137       3.954       3.736       3.356       2.935    
        2.632       2.383       2.168       1.946       1.712       1.429       1.149      0.8340      0.4122       0.000    
  39    10.00       9.916       9.847       9.785       9.700       9.586       9.463       9.342       9.176       8.955    
        8.766       8.626       8.458       8.266       8.002       7.711       7.442       7.151       6.939       6.820    
        6.685       6.552       6.472       6.403       6.297       6.051       5.758       5.587       5.462       5.334    
        5.171       4.997       4.805       4.628       4.458       4.253       4.013       3.748       3.373       2.980    
        2.660       2.403       2.233       2.048       1.784       1.504       1.220      0.8680      0.4067       0.000    
  40    10.00       9.908       9.842       9.780       9.694       9.577       9.458       9.339       9.191       9.008    
        8.853       8.732       8.534       8.246       7.924       7.633       7.349       7.097       6.937       6.798    
        6.644       6.525       6.454       6.373       6.232       6.015       5.809       5.634       5.491       5.359    
        5.199       5.010       4.827       4.678       4.528       4.320       4.042       3.765       3.383       2.962    
        2.662       2.459       2.272       2.113       1.836       1.529       1.269      0.8702      0.4052       0.000    
  41    10.00       9.916       9.842       9.767       9.675       9.584       9.485       9.375       9.229       9.064    
        8.915       8.774       8.529       8.195       7.862       7.589       7.309       7.065       6.911       6.762    
        6.609       6.503       6.427       6.330       6.184       6.016       5.874       5.703       5.524       5.369    
        5.215       5.042       4.866       4.735       4.576       4.369       4.090       3.706       3.268       2.944    
        2.726       2.529       2.335       2.114       1.826       1.532       1.309      0.9270      0.4204       0.000    
  42    10.00       9.917       9.833       9.768       9.700       9.616       9.511       9.387       9.263       9.137    
        8.954       8.719       8.437       8.119       7.812       7.562       7.288       7.048       6.884       6.716    
        6.573       6.479       6.397       6.308       6.172       6.052       5.931       5.738       5.538       5.397    
        5.269       5.080       4.891       4.764       4.615       4.395       4.052       3.600       3.198       2.956    
        2.792       2.615       2.369       2.075       1.798       1.568       1.337      0.9776      0.4824       0.000    
  43    10.00       9.910       9.840       9.784       9.731       9.651       9.548       9.430       9.295       9.106    
        8.877       8.636       8.372       8.042       7.764       7.533       7.288       7.046       6.839       6.683    
        6.551       6.458       6.386       6.312       6.195       6.069       5.947       5.748       5.573       5.468    
        5.311       5.108       4.924       4.793       4.620       4.334       3.938       3.509       3.216       3.030    
        2.855       2.653       2.350       2.048       1.804       1.582       1.383      0.9914      0.4531       0.000    
  44    10.00       9.910       9.849       9.799       9.735       9.676       9.591       9.438       9.242       9.027    
        8.835       8.591       8.273       7.998       7.774       7.510       7.241       6.990       6.783       6.646    
        6.549       6.466       6.392       6.314       6.213       6.085       5.919       5.754       5.635       5.509    
        5.369       5.191       4.981       4.781       4.570       4.250       3.834       3.481       3.254       3.074    
        2.898       2.657       2.365       2.104       1.842       1.604       1.360      0.8950      0.4116       0.000    
  45    10.00       9.920       9.863       9.799       9.737       9.685       9.550       9.370       9.173       8.989    
        8.831       8.508       8.177       7.976       7.739       7.447       7.156       6.923       6.755       6.643    
        6.568       6.490       6.408       6.315       6.203       6.078       5.938       5.809       5.705       5.574    
        5.411       5.227       5.011       4.758       4.506       4.161       3.770       3.492       3.319       3.134    
        2.899       2.624       2.373       2.135       1.903       1.666       1.271      0.7955      0.4004       0.000    
  46    10.00       9.936       9.875       9.800       9.729       9.629       9.483       9.347       9.182       8.984    
        8.724       8.418       8.153       7.898       7.646       7.364       7.094       6.920       6.782       6.674    
        6.598       6.522       6.418       6.303       6.194       6.088       5.977       5.859       5.753       5.638    
        5.492       5.297       5.051       4.752       4.391       4.032       3.743       3.546       3.366       3.173    
        2.895       2.602       2.352       2.163       1.942       1.633       1.183      0.7599      0.3746       0.000    
  47    10.00       9.948       9.890       9.816       9.696       9.564       9.439       9.333       9.181       8.922    
        8.611       8.330       8.100       7.887       7.619       7.312       7.073       6.909       6.798       6.708    
        6.626       6.537       6.429       6.307       6.200       6.116       6.024       5.907       5.785       5.672    
        5.545       5.382       5.056       4.637       4.284       4.026       3.783       3.614       3.454       3.188    
        2.848       2.538       2.312       2.181       1.936       1.558       1.119      0.7332      0.3704       0.000    
  48    10.00       9.953       9.894       9.784       9.661       9.547       9.421       9.314       9.161       8.869    
        8.529       8.294       8.106       7.846       7.533       7.256       7.076       6.911       6.800       6.730    
        6.647       6.541       6.424       6.312       6.224       6.157       6.074       5.945       5.804       5.683    
        5.549       5.353       5.014       4.666       4.351       4.066       3.849       3.675       3.471       3.133    
        2.768       2.528       2.348       2.118       1.796       1.461       1.084      0.7386      0.3911       0.000    
  49    10.00       9.951       9.862       9.756       9.663       9.541       9.419       9.305       9.113       8.804    
        8.500       8.275       8.040       7.777       7.541       7.283       7.033       6.879       6.811       6.746    
        6.667       6.545       6.410       6.312       6.245       6.195       6.100       5.952       5.803       5.693    
        5.548       5.290       4.991       4.745       4.481       4.166       3.887       3.672       3.432       3.069    
        2.775       2.565       2.316       1.983       1.698       1.395       1.066      0.7509      0.3824       0.000    
  50    10.00       9.938       9.841       9.743       9.669       9.555       9.419       9.275       9.067       8.823    
        8.515       8.214       7.969       7.759       7.570       7.280       6.996       6.879       6.820       6.757    
        6.681       6.544       6.399       6.310       6.257       6.211       6.105       5.945       5.804       5.691    
        5.533       5.262       5.032       4.821       4.536       4.223       3.940       3.654       3.309       2.987    
        2.831       2.610       2.248       1.912       1.673       1.385       1.099      0.7335      0.3013       0.000    

 HEAD WILL BE SAVED ON UNIT   51 AT END OF TIME STEP  82, STRESS PERIOD    2

 DRAWDOWN WILL BE SAVED ON UNIT   52 AT END OF TIME STEP  82, STRESS PERIOD    2
1
  VOLUMETRIC BUDGET FOR ENTIRE MODEL AT END OF TIME STEP 82 IN STRESS PERIOD   2
  ------------------------------------------------------------------------------

     CUMULATIVE VOLUMES      L**3       RATES FOR THIS TIME STEP      L**3/T
     ------------------                 ------------------------

           IN:                                      IN:
           ---                                      ---
             STORAGE =       38130.4766               STORAGE =         396.6289
       CONSTANT HEAD =       47528.1328         CONSTANT HEAD =         635.0770
               WELLS =           0.0000                 WELLS =           0.0000

            TOTAL IN =       85658.6094              TOTAL IN =        1031.7059

          OUT:                                     OUT:
          ----                                     ----
             STORAGE =       9.3745E-03               STORAGE =           0.0000
       CONSTANT HEAD =       44658.5820         CONSTANT HEAD =         531.7065
               WELLS =       41000.0000                 WELLS =         500.0000

           TOTAL OUT =       85658.5938             TOTAL OUT =        1031.7065

            IN - OUT =       1.5625E-02              IN - OUT =      -6.1035E-04

 PERCENT DISCREPANCY =           0.00     PERCENT DISCREPANCY =           0.00






          TIME SUMMARY AT END OF TIME STEP  82 IN STRESS PERIOD    2
                    SECONDS     MINUTES      HOURS       DAYS        YEARS
                    -----------------------------------------------------------
   TIME STEP LENGTH  86400.      1440.0      24.000      1.0000     2.73785E-03
 STRESS PERIOD TIME 7.08480E+06 1.18080E+05  1968.0      82.000     0.22450    
         TOTAL TIME 7.17120E+06 1.19520E+05  1992.0      83.000     0.22724    
1
 
 SOLVING FOR HEAD 

 OUTPUT CONTROL FOR STRESS PERIOD    2   TIME STEP  83
    SAVE HEAD FOR ALL LAYERS
    SAVE DRAWDOWN FOR ALL LAYERS
    SAVE BUDGET
    PRINT HEAD FOR ALL LAYERS
    PRINT BUDGET
 UBDSV1 SAVING "         STORAGE" ON UNIT  53 AT TIME STEP 83, STRESS PERIOD   2
 UBDSV2 SAVING "   CONSTANT HEAD" ON UNIT  53 AT TIME STEP 83, STRESS PERIOD   2
 UBDSV1 SAVING "FLOW RIGHT FACE " ON UNIT  53 AT TIME STEP 83, STRESS PERIOD   2
 UBDSV1 SAVING "FLOW FRONT FACE " ON UNIT  53 AT TIME STEP 83, STRESS PERIOD   2
1
              HEAD IN LAYER   1 AT END OF TIME STEP  83 IN STRESS PERIOD    2
  ---------------------------------------------------------------------------

            1           2           3           4           5           6           7           8           9          10
           11          12          13          14          15          16          17          18          19          20
           21          22          23          24          25          26          27          28          29          30
           31          32          33          34          35          36          37          38          39          40
           41          42          43          44          45          46          47          48          49          50
 ........................................................................................................................
   1    10.00       9.952       9.886       9.820       9.766       9.699       9.634       9.565       9.474       9.399    
        9.355       9.310       9.261       9.213       9.136       9.050       8.958       8.886       8.853       8.818    
        8.775       8.738       8.700       8.653       8.588       8.476       8.341       8.210       8.061       7.913    
        7.703       7.370       6.978       6.566       6.105       5.679       5.319       4.985       4.531       4.037    
        3.618       3.205       2.635       2.095       1.717       1.338       1.021      0.8156      0.5409       0.000    
   2    10.00       9.951       9.892       9.826       9.768       9.707       9.634       9.544       9.456       9.398    
        9.359       9.319       9.282       9.221       9.132       9.044       8.960       8.889       8.854       8.814    
        8.769       8.741       8.711       8.661       8.586       8.479       8.342       8.206       8.066       7.919    
        7.692       7.348       6.935       6.469       6.003       5.593       5.271       4.944       4.483       4.019    
        3.597       3.100       2.587       2.160       1.785       1.433       1.070      0.7745      0.4136       0.000    
   3    10.00       9.947       9.890       9.830       9.771       9.700       9.609       9.524       9.468       9.415    
        9.369       9.335       9.298       9.241       9.152       9.042       8.953       8.894       8.851       8.810    
        8.773       8.743       8.712       8.649       8.569       8.459       8.330       8.227       8.078       7.904    
        7.610       7.209       6.767       6.313       5.887       5.508       5.221       4.884       4.383       3.933    
        3.581       3.132       2.661       2.252       1.863       1.508       1.080      0.6644      0.2922       0.000    
   4    10.00       9.951       9.893       9.827       9.754       9.673       9.586       9.523       9.475       9.425    
        9.386       9.356       9.315       9.253       9.172       9.052       8.952       8.898       8.851       8.812    
        8.770       8.734       8.695       8.628       8.545       8.439       8.312       8.195       8.079       7.859    
        7.477       6.983       6.509       6.162       5.847       5.482       5.116       4.686       4.263       3.938    
        3.627       3.231       2.761       2.359       1.953       1.523       1.030      0.5898      0.2747       0.000    
   5    10.00       9.947       9.886       9.811       9.736       9.659       9.584       9.530       9.481       9.438    
        9.403       9.372       9.324       9.252       9.156       9.046       8.961       8.902       8.853       8.799    
        8.750       8.713       8.664       8.595       8.518       8.394       8.268       8.168       8.052       7.766    
        7.260       6.713       6.321       6.059       5.777       5.411       4.992       4.570       4.274       4.000    
        3.722       3.315       2.828       2.477       2.065       1.503      0.9367      0.5442      0.2738       0.000    
   6    10.00       9.935       9.862       9.803       9.732       9.653       9.589       9.541       9.490       9.450    
        9.418       9.380       9.318       9.233       9.151       9.060       8.968       8.894       8.831       8.769    
        8.725       8.685       8.640       8.567       8.452       8.334       8.240       8.131       7.933       7.519    
        6.952       6.455       6.156       5.962       5.734       5.332       4.880       4.551       4.334       4.097    
        3.831       3.465       2.983       2.549       2.039       1.437      0.8399      0.4786      0.2674       0.000    
   7    10.00       9.916       9.848       9.790       9.722       9.665       9.604       9.554       9.511       9.469    
        9.427       9.371       9.296       9.214       9.139       9.064       8.961       8.860       8.793       8.743    
        8.700       8.656       8.609       8.510       8.392       8.298       8.194       8.015       7.676       7.146    
        6.611       6.226       6.044       5.897       5.605       5.203       4.909       4.628       4.398       4.236    
        3.969       3.593       3.079       2.517       1.889       1.198      0.7040      0.4859      0.2461       0.000    
   8    10.00       9.910       9.847       9.786       9.725       9.674       9.622       9.573       9.531       9.491    
        9.429       9.349       9.269       9.197       9.127       9.033       8.911       8.816       8.765       8.717    
        8.666       8.629       8.551       8.443       8.338       8.226       8.028       7.743       7.274       6.816    
        6.423       6.125       5.990       5.809       5.476       5.170       4.928       4.724       4.544       4.355    
        4.079       3.617       3.024       2.384       1.667       1.081      0.7449      0.4766      0.2196       0.000    
   9    10.00       9.914       9.843       9.783       9.739       9.696       9.646       9.597       9.549       9.503    
        9.424       9.325       9.242       9.169       9.084       8.979       8.868       8.785       8.732       8.681    
        8.636       8.575       8.465       8.365       8.255       8.096       7.805       7.375       6.913       6.587    
        6.280       6.068       5.918       5.676       5.372       5.139       4.969       4.817       4.665       4.460    
        4.119       3.638       3.009       2.294       1.635       1.119      0.7600      0.4729      0.2345       0.000    
  10    10.00       9.913       9.840       9.791       9.752       9.710       9.666       9.623       9.567       9.493    
        9.396       9.296       9.215       9.135       9.045       8.923       8.812       8.745       8.699       8.649    
        8.602       8.500       8.382       8.272       8.117       7.874       7.436       6.973       6.615       6.372    
        6.192       6.023       5.818       5.570       5.318       5.146       5.025       4.900       4.730       4.492    
        4.126       3.600       2.928       2.291       1.770       1.282      0.8141      0.5023      0.2648       0.000    
  11    10.00       9.901       9.845       9.804       9.764       9.728       9.688       9.631       9.551       9.466    
        9.370       9.272       9.194       9.086       8.962       8.856       8.777       8.715       8.669       8.613    
        8.527       8.395       8.225       8.059       7.786       7.423       7.036       6.735       6.453       6.282    
        6.132       5.906       5.677       5.495       5.331       5.211       5.091       4.931       4.729       4.450    
        4.107       3.644       2.966       2.386       1.926       1.458      0.9390      0.4983      0.2001       0.000    
  12    10.00       9.910       9.854       9.810       9.777       9.739       9.695       9.617       9.521       9.435    
        9.343       9.245       9.139       9.009       8.907       8.815       8.733       8.681       8.621       8.535    
        8.364       8.138       7.898       7.650       7.311       7.035       6.838       6.528       6.299       6.170    
        6.012       5.800       5.623       5.474       5.372       5.263       5.120       4.940       4.699       4.408    
        4.071       3.620       3.000       2.483       2.067       1.563      0.9894      0.4723      0.1571       0.000    
  13    10.00       9.929       9.878       9.830       9.788       9.744       9.678       9.581       9.482       9.396    
        9.299       9.200       9.089       8.954       8.837       8.746       8.687       8.620       8.534       8.326    
        8.014       7.740       7.481       7.172       6.909       6.789       6.544       6.263       6.151       6.046    
        5.880       5.701       5.578       5.481       5.400       5.300       5.137       4.913       4.678       4.379    
        4.046       3.587       2.949       2.467       2.081       1.530      0.9219      0.4274      0.1235       0.000    
  14    10.00       9.948       9.902       9.851       9.800       9.731       9.635       9.533       9.444       9.346    
        9.249       9.158       9.025       8.874       8.767       8.695       8.597       8.493       8.285       7.919    
        7.587       7.344       7.005       6.755       6.640       6.506       6.253       6.094       5.979       5.878    
        5.740       5.637       5.568       5.495       5.412       5.310       5.128       4.882       4.631       4.328    
        3.971       3.418       2.817       2.428       1.956       1.426      0.9082      0.3900      0.1004       0.000    
  15    10.00       9.959       9.912       9.860       9.801       9.697       9.579       9.489       9.400       9.306    
        9.232       9.125       8.949       8.784       8.686       8.555       8.423       8.290       7.939       7.511    
        7.240       6.897       6.591       6.500       6.432       6.255       6.054       5.899       5.819       5.748    
        5.670       5.616       5.567       5.506       5.419       5.295       5.084       4.805       4.541       4.262    
        3.876       3.339       2.820       2.297       1.726       1.251      0.7804      0.3434      0.1031       0.000    
  16    10.00       9.970       9.923       9.862       9.768       9.641       9.539       9.466       9.385       9.288    
        9.189       9.034       8.830       8.671       8.528       8.374       8.284       8.012       7.504       7.113    
        6.842       6.508       6.398       6.345       6.216       5.992       5.832       5.763       5.744       5.699    
        5.645       5.603       5.563       5.498       5.393       5.238       4.983       4.731       4.525       4.227    
        3.789       3.209       2.612       2.029       1.542       1.072      0.6645      0.3257      0.1099       0.000    
  17    10.00       9.969       9.920       9.839       9.722       9.594       9.508       9.442       9.351       9.241    
        9.075       8.877       8.694       8.521       8.343       8.195       7.972       7.516       7.047       6.780    
        6.517       6.316       6.230       6.105       5.902       5.738       5.698       5.696       5.687       5.651    
        5.612       5.581       5.545       5.483       5.329       5.116       4.898       4.724       4.530       4.154    
        3.567       2.975       2.404       1.831       1.319      0.8676      0.5566      0.2910      0.1196       0.000    
  18    10.00       9.962       9.904       9.806       9.659       9.556       9.489       9.397       9.293       9.139    
        8.936       8.762       8.577       8.343       8.110       7.864       7.540       7.081       6.734       6.503    
        6.292       6.125       5.994       5.815       5.678       5.638       5.630       5.631       5.614       5.589    
        5.571       5.550       5.509       5.400       5.239       5.060       4.881       4.726       4.453       3.949    
        3.348       2.717       2.103       1.632       1.224      0.8131      0.4780      0.2407      0.1154       0.000    
  19    10.00       9.953       9.888       9.746       9.599       9.539       9.463       9.349       9.220       9.054    
        8.870       8.705       8.437       8.081       7.805       7.554       7.164       6.751       6.520       6.344    
        6.127       5.925       5.781       5.645       5.580       5.568       5.565       5.548       5.523       5.519    
        5.514       5.498       5.436       5.333       5.201       5.029       4.869       4.645       4.174       3.649    
        3.163       2.508       1.925       1.550       1.144      0.7337      0.4317      0.2451      0.1256       0.000    
  20    10.00       9.942       9.833       9.687       9.580       9.515       9.432       9.310       9.166       9.015    
        8.825       8.573       8.172       7.820       7.577       7.268       6.884       6.661       6.451       6.207    
        5.969       5.789       5.640       5.545       5.498       5.475       5.446       5.441       5.428       5.438    
        5.443       5.430       5.365       5.273       5.138       4.992       4.791       4.380       3.871       3.451    
        2.921       2.316       1.879       1.516       1.107      0.6516      0.3774      0.2553      0.1316       0.000    
  21    10.00       9.903       9.787       9.664       9.559       9.490       9.400       9.257       9.114       8.971    
        8.716       8.331       7.925       7.661       7.390       7.067       6.784       6.573       6.322       6.065    
        5.838       5.663       5.533       5.433       5.366       5.316       5.299       5.308       5.313       5.331    
        5.353       5.329       5.265       5.180       5.046       4.886       4.572       4.139       3.738       3.228    
        2.725       2.247       1.878       1.510      0.9336      0.5284      0.3823      0.2885      0.1384       0.000    
  22    10.00       9.878       9.738       9.628       9.545       9.461       9.335       9.202       9.075       8.877    
        8.550       8.116       7.796       7.558       7.256       6.925       6.656       6.434       6.205       5.963    
        5.738       5.553       5.379       5.224       5.137       5.117       5.135       5.149       5.187       5.211    
        5.235       5.209       5.157       5.070       4.939       4.780       4.461       4.048       3.523       3.028    
        2.663       2.282       1.837       1.220      0.7299      0.5273      0.4010      0.2671      9.8840E-02   0.000    
  23    10.00       9.842       9.705       9.619       9.531       9.406       9.267       9.168       9.008       8.760    
        8.380       8.010       7.780       7.484       7.091       6.764       6.553       6.374       6.161       5.901    
        5.664       5.447       5.198       4.907       4.695       4.738       4.874       4.962       5.042       5.097    
        5.120       5.109       5.064       4.982       4.861       4.684       4.362       3.851       3.324       2.976    
        2.640       2.159       1.518      0.9865      0.7191      0.5382      0.3852      0.2274      9.0542E-02   0.000    
  24    10.00       9.817       9.719       9.615       9.489       9.358       9.253       9.143       8.988       8.661    
        8.305       8.032       7.771       7.377       6.948       6.713       6.536       6.359       6.117       5.873    
        5.662       5.387       4.989       4.438       3.767       4.038       4.444       4.727       4.895       4.982    
        5.027       5.024       4.992       4.903       4.766       4.541       4.132       3.648       3.254       2.891    
        2.478       1.940       1.365      0.9581      0.7214      0.5250      0.3519      0.2467      0.1211       0.000    
  25    10.00       9.838       9.737       9.606       9.475       9.355       9.250       9.149       8.918       8.601    
        8.327       8.051       7.710       7.278       6.959       6.749       6.547       6.335       6.115       5.904    
        5.662       5.398       4.830       3.783       1.924       3.303       4.048       4.492       4.767       4.912    
        4.967       4.970       4.929       4.805       4.616       4.306       3.919       3.538       3.200       2.775    
        2.277       1.761       1.276      0.9509      0.7485      0.5461      0.3711      0.2585      0.1609       0.000    
  26    10.00       9.860       9.762       9.624       9.484       9.375       9.263       9.114       8.886       8.666    
        8.408       8.030       7.614       7.265       7.024       6.818       6.584       6.322       6.109       5.932    
        5.731       5.470       4.978       4.206       3.352       3.705       4.152       4.483       4.737       4.895    
        4.942       4.934       4.861       4.711       4.500       4.204       3.776       3.412       3.093       2.575    
        2.009       1.555       1.265       1.039      0.8075      0.5899      0.4048      0.2810      0.1642       0.000    
  27    10.00       9.889       9.768       9.644       9.523       9.395       9.270       9.120       8.932       8.730    
        8.407       7.983       7.617       7.327       7.123       6.887       6.582       6.309       6.142       5.997    
        5.838       5.597       5.223       4.765       4.300       4.264       4.432       4.642       4.830       4.925    
        4.940       4.916       4.829       4.663       4.415       4.013       3.607       3.303       2.814       2.264    
        1.821       1.528       1.309       1.111      0.8831      0.6441      0.4400      0.3094      0.1953       0.000    
  28    10.00       9.896       9.798       9.686       9.567       9.431       9.293       9.149       8.986       8.750    
        8.374       8.005       7.686       7.401       7.184       6.953       6.704       6.439       6.201       6.050    
        5.923       5.750       5.508       5.173       4.886       4.714       4.745       4.878       4.943       4.971    
        4.956       4.911       4.802       4.587       4.257       3.836       3.480       3.048       2.533       2.139    
        1.821       1.571       1.357       1.150      0.9283      0.7032      0.4994      0.3526      0.2016       0.000    
  29    10.00       9.904       9.808       9.720       9.604       9.482       9.347       9.198       9.020       8.707    
        8.356       8.044       7.742       7.501       7.255       7.009       6.782       6.569       6.339       6.139    
        6.002       5.869       5.707       5.506       5.232       5.095       5.075       5.080       5.083       5.048    
        4.989       4.895       4.761       4.484       4.071       3.691       3.323       2.867       2.452       2.160    
        1.900       1.627       1.383       1.185      0.9852      0.7442      0.5281      0.3687      0.2045       0.000    
  30    10.00       9.917       9.837       9.761       9.657       9.537       9.416       9.247       9.008       8.724    
        8.370       8.033       7.786       7.545       7.313       7.090       6.906       6.708       6.483       6.271    
        6.101       5.988       5.850       5.713       5.562       5.439       5.396       5.300       5.239       5.143    
        5.017       4.852       4.654       4.357       4.023       3.660       3.264       2.832       2.514       2.246    
        1.937       1.661       1.449       1.223      0.9847      0.7710      0.5634      0.3919      0.2202       0.000    
  31    10.00       9.934       9.869       9.796       9.719       9.622       9.486       9.278       9.006       8.707    
        8.368       8.066       7.841       7.606       7.391       7.186       7.002       6.846       6.621       6.407    
        6.251       6.130       6.021       5.916       5.840       5.727       5.605       5.498       5.367       5.217    
        5.015       4.793       4.583       4.332       4.009       3.622       3.215       2.856       2.628       2.374    
        2.030       1.727       1.484       1.254       1.032      0.8121      0.5976      0.4128      0.2138       0.000    
  32    10.00       9.943       9.897       9.834       9.761       9.670       9.526       9.288       9.042       8.759    
        8.410       8.130       7.918       7.678       7.450       7.283       7.122       6.938       6.758       6.546    
        6.386       6.257       6.161       6.075       5.987       5.894       5.749       5.618       5.460       5.254    
        5.014       4.781       4.552       4.306       3.988       3.636       3.315       3.006       2.745       2.454    
        2.137       1.835       1.579       1.314       1.071      0.8844      0.6600      0.4057      0.1812       0.000    
  33    10.00       9.953       9.916       9.863       9.789       9.693       9.507       9.274       9.076       8.823    
        8.504       8.239       7.989       7.723       7.523       7.381       7.241       7.052       6.853       6.674    
        6.495       6.366       6.251       6.154       6.073       5.981       5.841       5.667       5.503       5.303    
        5.057       4.838       4.594       4.283       3.981       3.665       3.403       3.159       2.865       2.544    
        2.268       1.982       1.699       1.425       1.168      0.9594      0.7077      0.4087      0.1777       0.000    
  34    10.00       9.961       9.933       9.889       9.794       9.654       9.484       9.322       9.117       8.869    
        8.598       8.311       8.036       7.776       7.611       7.493       7.342       7.163       6.940       6.769    
        6.612       6.452       6.328       6.229       6.149       6.040       5.882       5.715       5.534       5.304    
        5.089       4.902       4.666       4.362       4.054       3.758       3.510       3.269       2.962       2.669    
        2.420       2.144       1.834       1.560       1.300       1.060      0.7585      0.4607      0.2415       0.000    
  35    10.00       9.968       9.934       9.871       9.756       9.620       9.499       9.360       9.196       8.929    
        8.636       8.353       8.077       7.861       7.710       7.586       7.428       7.240       7.027       6.825    
        6.678       6.531       6.405       6.309       6.221       6.110       5.933       5.733       5.523       5.286    
        5.120       4.931       4.687       4.462       4.201       3.886       3.606       3.402       3.107       2.791    
        2.549       2.266       1.955       1.685       1.414       1.150      0.8703      0.5768      0.2854       0.000    
  36    10.00       9.961       9.908       9.840       9.733       9.608       9.507       9.390       9.215       8.961    
        8.646       8.351       8.153       7.984       7.836       7.679       7.494       7.307       7.087       6.838    
        6.677       6.566       6.453       6.373       6.282       6.144       5.951       5.732       5.478       5.254    
        5.106       4.953       4.736       4.516       4.296       4.012       3.730       3.508       3.244       2.896    
        2.631       2.316       2.005       1.799       1.535       1.241      0.9603      0.6536      0.3198       0.000    
  37    10.00       9.941       9.885       9.818       9.715       9.606       9.493       9.382       9.224       8.933    
        8.608       8.380       8.261       8.100       7.918       7.764       7.544       7.317       7.051       6.803    
        6.684       6.591       6.483       6.398       6.295       6.132       5.936       5.661       5.424       5.267    
        5.131       4.961       4.745       4.570       4.343       4.074       3.852       3.637       3.340       2.959    
        2.610       2.313       2.097       1.882       1.618       1.340       1.058      0.7209      0.3959       0.000    
  38    10.00       9.934       9.862       9.793       9.703       9.601       9.483       9.364       9.185       8.915    
        8.672       8.489       8.337       8.193       8.001       7.761       7.520       7.266       6.973       6.799    
        6.702       6.585       6.482       6.408       6.296       6.107       5.824       5.562       5.429       5.306    
        5.160       4.979       4.781       4.605       4.383       4.135       3.953       3.734       3.354       2.934    
        2.631       2.383       2.167       1.946       1.712       1.429       1.149      0.8337      0.4121       0.000    
  39    10.00       9.916       9.847       9.785       9.700       9.585       9.462       9.341       9.174       8.953    
        8.763       8.623       8.454       8.261       7.998       7.706       7.437       7.146       6.934       6.815    
        6.680       6.547       6.468       6.398       6.292       6.046       5.754       5.584       5.459       5.331    
        5.168       4.995       4.803       4.626       4.456       4.252       4.011       3.746       3.371       2.979    
        2.659       2.402       2.233       2.047       1.784       1.504       1.219      0.8677      0.4066       0.000    
  40    10.00       9.907       9.842       9.779       9.693       9.576       9.457       9.338       9.189       9.006    
        8.850       8.729       8.530       8.243       7.920       7.629       7.345       7.092       6.933       6.793    
        6.640       6.521       6.450       6.369       6.228       6.012       5.806       5.631       5.488       5.356    
        5.196       5.008       4.825       4.676       4.526       4.319       4.040       3.763       3.382       2.961    
        2.661       2.458       2.271       2.112       1.835       1.528       1.268      0.8700      0.4051       0.000    
  41    10.00       9.916       9.841       9.767       9.675       9.583       9.484       9.373       9.227       9.062    
        8.913       8.771       8.526       8.192       7.859       7.586       7.306       7.061       6.907       6.758    
        6.605       6.499       6.424       6.327       6.180       6.013       5.871       5.700       5.522       5.366    
        5.212       5.040       4.864       4.733       4.574       4.367       4.088       3.705       3.267       2.943    
        2.725       2.528       2.334       2.113       1.825       1.531       1.309      0.9267      0.4202       0.000    
  42    10.00       9.917       9.832       9.768       9.700       9.615       9.510       9.385       9.262       9.135    
        8.952       8.717       8.434       8.117       7.809       7.559       7.285       7.044       6.880       6.713    
        6.570       6.476       6.394       6.305       6.169       6.049       5.928       5.736       5.536       5.395    
        5.266       5.078       4.889       4.762       4.614       4.393       4.051       3.598       3.197       2.955    
        2.791       2.614       2.368       2.074       1.797       1.568       1.337      0.9774      0.4823       0.000    
  43    10.00       9.910       9.840       9.784       9.730       9.650       9.547       9.429       9.294       9.105    
        8.875       8.634       8.370       8.040       7.761       7.530       7.285       7.043       6.836       6.680    
        6.549       6.455       6.383       6.309       6.192       6.066       5.944       5.746       5.571       5.466    
        5.309       5.105       4.922       4.791       4.618       4.332       3.936       3.508       3.215       3.029    
        2.854       2.652       2.350       2.047       1.803       1.581       1.382      0.9911      0.4529       0.000    
  44    10.00       9.910       9.849       9.799       9.735       9.675       9.591       9.437       9.241       9.026    
        8.834       8.589       8.271       7.996       7.772       7.507       7.238       6.987       6.781       6.643    
        6.546       6.464       6.389       6.312       6.210       6.082       5.917       5.752       5.633       5.507    
        5.367       5.189       4.979       4.779       4.568       4.248       3.832       3.479       3.253       3.073    
        2.897       2.657       2.365       2.103       1.842       1.604       1.360      0.8948      0.4115       0.000    
  45    10.00       9.920       9.863       9.798       9.737       9.685       9.550       9.369       9.172       8.988    
        8.829       8.506       8.175       7.974       7.736       7.445       7.153       6.920       6.752       6.641    
        6.565       6.487       6.405       6.313       6.201       6.075       5.935       5.807       5.702       5.572    
        5.409       5.225       5.009       4.756       4.504       4.159       3.769       3.491       3.318       3.133    
        2.898       2.623       2.373       2.134       1.903       1.666       1.270      0.7953      0.4002       0.000    
  46    10.00       9.936       9.875       9.799       9.729       9.628       9.482       9.346       9.181       8.983    
        8.722       8.416       8.151       7.896       7.644       7.362       7.091       6.918       6.779       6.671    
        6.595       6.519       6.416       6.300       6.192       6.085       5.974       5.856       5.751       5.636    
        5.489       5.295       5.049       4.750       4.389       4.031       3.742       3.545       3.365       3.172    
        2.894       2.601       2.351       2.163       1.941       1.633       1.183      0.7597      0.3746       0.000    
  47    10.00       9.948       9.890       9.816       9.696       9.563       9.438       9.332       9.181       8.921    
        8.609       8.328       8.098       7.886       7.617       7.310       7.071       6.907       6.795       6.706    
        6.623       6.535       6.427       6.305       6.198       6.114       6.021       5.905       5.783       5.670    
        5.543       5.380       5.054       4.635       4.283       4.024       3.782       3.612       3.453       3.187    
        2.848       2.537       2.311       2.181       1.936       1.558       1.119      0.7330      0.3703       0.000    
  48    10.00       9.953       9.894       9.784       9.661       9.546       9.421       9.313       9.160       8.868    
        8.528       8.293       8.104       7.844       7.531       7.254       7.074       6.908       6.798       6.728    
        6.645       6.539       6.422       6.310       6.222       6.154       6.072       5.943       5.802       5.680    
        5.547       5.351       5.012       4.664       4.349       4.064       3.848       3.674       3.470       3.132    
        2.767       2.528       2.348       2.117       1.795       1.460       1.084      0.7384      0.3910       0.000    
  49    10.00       9.951       9.862       9.755       9.663       9.540       9.418       9.304       9.112       8.803    
        8.499       8.274       8.038       7.775       7.539       7.280       7.030       6.876       6.809       6.744    
        6.665       6.543       6.407       6.310       6.242       6.192       6.098       5.949       5.801       5.691    
        5.546       5.288       4.989       4.743       4.479       4.165       3.885       3.671       3.431       3.068    
        2.774       2.564       2.316       1.982       1.697       1.395       1.066      0.7507      0.3823       0.000    
  50    10.00       9.938       9.840       9.743       9.669       9.554       9.419       9.274       9.066       8.822    
        8.514       8.213       7.967       7.758       7.568       7.278       6.993       6.877       6.818       6.754    
        6.678       6.541       6.396       6.308       6.254       6.208       6.103       5.943       5.802       5.689    
        5.531       5.260       5.030       4.819       4.534       4.221       3.938       3.653       3.308       2.986    
        2.830       2.610       2.247       1.912       1.673       1.384       1.098      0.7333      0.3012       0.000    

 HEAD WILL BE SAVED ON UNIT   51 AT END OF TIME STEP  83, STRESS PERIOD    2

 DRAWDOWN WILL BE SAVED ON UNIT   52 AT END OF TIME STEP  83, STRESS PERIOD    2
1
  VOLUMETRIC BUDGET FOR ENTIRE MODEL AT END OF TIME STEP 83 IN STRESS PERIOD   2
  ------------------------------------------------------------------------------

     CUMULATIVE VOLUMES      L**3       RATES FOR THIS TIME STEP      L**3/T
     ------------------                 ------------------------

           IN:                                      IN:
           ---                                      ---
             STORAGE =       38525.0938               STORAGE =         394.6161
       CONSTANT HEAD =       48164.9141         CONSTANT HEAD =         636.7813
               WELLS =           0.0000                 WELLS =           0.0000

            TOTAL IN =       86690.0078              TOTAL IN =        1031.3975

          OUT:                                     OUT:
          ----                                     ----
             STORAGE =       9.3745E-03               STORAGE =           0.0000
       CONSTANT HEAD =       45189.9805         CONSTANT HEAD =         531.3976
               WELLS =       41500.0000                 WELLS =         500.0000

           TOTAL OUT =       86689.9922             TOTAL OUT =        1031.3976

            IN - OUT =       1.5625E-02              IN - OUT =      -1.2207E-04

 PERCENT DISCREPANCY =           0.00     PERCENT DISCREPANCY =           0.00






          TIME SUMMARY AT END OF TIME STEP  83 IN STRESS PERIOD    2
                    SECONDS     MINUTES      HOURS       DAYS        YEARS
                    -----------------------------------------------------------
   TIME STEP LENGTH  86400.      1440.0      24.000      1.0000     2.73785E-03
 STRESS PERIOD TIME 7.17120E+06 1.19520E+05  1992.0      83.000     0.22724    
         TOTAL TIME 7.25760E+06 1.20960E+05  2016.0      84.000     0.22998    
1
 
 SOLVING FOR HEAD 

 OUTPUT CONTROL FOR STRESS PERIOD    2   TIME STEP  84
    SAVE HEAD FOR ALL LAYERS
    SAVE DRAWDOWN FOR ALL LAYERS
    SAVE BUDGET
    PRINT HEAD FOR ALL LAYERS
    PRINT BUDGET
 UBDSV1 SAVING "         STORAGE" ON UNIT  53 AT TIME STEP 84, STRESS PERIOD   2
 UBDSV2 SAVING "   CONSTANT HEAD" ON UNIT  53 AT TIME STEP 84, STRESS PERIOD   2
 UBDSV1 SAVING "FLOW RIGHT FACE " ON UNIT  53 AT TIME STEP 84, STRESS PERIOD   2
 UBDSV1 SAVING "FLOW FRONT FACE " ON UNIT  53 AT TIME STEP 84, STRESS PERIOD   2
1
              HEAD IN LAYER   1 AT END OF TIME STEP  84 IN STRESS PERIOD    2
  ---------------------------------------------------------------------------

            1           2           3           4           5           6           7           8           9          10
           11          12          13          14          15          16          17          18          19          20
           21          22          23          24          25          26          27          28          29          30
           31          32          33          34          35          36          37          38          39          40
           41          42          43          44          45          46          47          48          49          50
 ........................................................................................................................
   1    10.00       9.952       9.885       9.820       9.765       9.698       9.633       9.564       9.472       9.397    
        9.353       9.308       9.259       9.211       9.133       9.048       8.955       8.883       8.850       8.815    
        8.771       8.734       8.697       8.650       8.585       8.472       8.337       8.206       8.057       7.909    
        7.699       7.366       6.974       6.562       6.101       5.675       5.315       4.982       4.527       4.033    
        3.615       3.202       2.633       2.093       1.715       1.337       1.020      0.8148      0.5404       0.000    
   2    10.00       9.951       9.892       9.826       9.768       9.706       9.633       9.543       9.455       9.397    
        9.357       9.317       9.280       9.219       9.130       9.042       8.957       8.886       8.851       8.811    
        8.766       8.738       8.708       8.658       8.583       8.475       8.339       8.202       8.062       7.915    
        7.688       7.344       6.931       6.464       5.999       5.589       5.267       4.940       4.479       4.016    
        3.593       3.098       2.584       2.158       1.784       1.431       1.069      0.7738      0.4132       0.000    
   3    10.00       9.946       9.890       9.829       9.770       9.699       9.608       9.523       9.466       9.413    
        9.368       9.333       9.296       9.239       9.149       9.040       8.950       8.891       8.848       8.807    
        8.770       8.740       8.709       8.646       8.565       8.456       8.326       8.223       8.074       7.900    
        7.606       7.205       6.762       6.309       5.882       5.504       5.217       4.880       4.379       3.929    
        3.578       3.129       2.658       2.250       1.862       1.507       1.079      0.6638      0.2920       0.000    
   4    10.00       9.951       9.893       9.827       9.754       9.672       9.585       9.521       9.473       9.424    
        9.384       9.354       9.313       9.251       9.169       9.049       8.949       8.895       8.847       8.809    
        8.767       8.730       8.692       8.624       8.542       8.435       8.308       8.191       8.075       7.855    
        7.472       6.978       6.504       6.157       5.842       5.478       5.112       4.682       4.259       3.934    
        3.624       3.228       2.759       2.357       1.951       1.521       1.029      0.5892      0.2745       0.000    
   5    10.00       9.947       9.886       9.810       9.735       9.658       9.583       9.529       9.479       9.436    
        9.401       9.370       9.322       9.249       9.153       9.044       8.958       8.898       8.850       8.796    
        8.746       8.709       8.660       8.592       8.514       8.390       8.264       8.164       8.048       7.762    
        7.255       6.708       6.316       6.054       5.772       5.406       4.988       4.565       4.270       3.996    
        3.718       3.312       2.825       2.475       2.063       1.501      0.9358      0.5437      0.2736       0.000    
   6    10.00       9.934       9.862       9.803       9.731       9.652       9.588       9.539       9.488       9.449    
        9.417       9.378       9.315       9.231       9.148       9.057       8.965       8.891       8.828       8.766    
        8.722       8.681       8.636       8.563       8.448       8.330       8.236       8.126       7.929       7.515    
        6.947       6.449       6.151       5.957       5.729       5.326       4.875       4.546       4.330       4.093    
        3.827       3.461       2.981       2.547       2.037       1.436      0.8391      0.4782      0.2672       0.000    
   7    10.00       9.915       9.847       9.790       9.721       9.664       9.603       9.553       9.509       9.467    
        9.425       9.370       9.293       9.211       9.137       9.061       8.958       8.857       8.789       8.739    
        8.696       8.652       8.605       8.506       8.388       8.294       8.190       8.011       7.671       7.140    
        6.605       6.219       6.038       5.890       5.599       5.197       4.904       4.623       4.393       4.231    
        3.964       3.589       3.076       2.515       1.887       1.197      0.7033      0.4855      0.2459       0.000    
   8    10.00       9.910       9.847       9.785       9.724       9.673       9.621       9.572       9.530       9.489    
        9.428       9.347       9.267       9.195       9.124       9.031       8.907       8.813       8.761       8.713    
        8.662       8.625       8.547       8.439       8.334       8.222       8.023       7.737       7.268       6.810    
        6.416       6.118       5.984       5.802       5.470       5.164       4.923       4.718       4.538       4.350    
        4.075       3.613       3.021       2.381       1.666       1.080      0.7442      0.4762      0.2194       0.000    
   9    10.00       9.914       9.843       9.782       9.738       9.695       9.645       9.596       9.548       9.501    
        9.422       9.323       9.240       9.166       9.081       8.976       8.865       8.781       8.728       8.678    
        8.632       8.571       8.461       8.361       8.250       8.091       7.800       7.369       6.906       6.580    
        6.273       6.061       5.911       5.669       5.366       5.132       4.963       4.811       4.659       4.455    
        4.114       3.634       3.006       2.292       1.633       1.118      0.7593      0.4724      0.2343       0.000    
  10    10.00       9.913       9.840       9.790       9.751       9.709       9.665       9.622       9.566       9.491    
        9.395       9.294       9.213       9.132       9.042       8.920       8.809       8.742       8.696       8.645    
        8.598       8.496       8.378       8.267       8.112       7.869       7.429       6.966       6.608       6.364    
        6.185       6.016       5.810       5.563       5.311       5.140       5.018       4.894       4.724       4.487    
        4.121       3.596       2.925       2.289       1.768       1.281      0.8133      0.5019      0.2646       0.000    
  11    10.00       9.901       9.845       9.803       9.763       9.727       9.687       9.630       9.549       9.465    
        9.368       9.270       9.191       9.083       8.959       8.852       8.773       8.711       8.665       8.609    
        8.523       8.391       8.220       8.054       7.780       7.417       7.029       6.727       6.445       6.274    
        6.124       5.898       5.669       5.487       5.324       5.204       5.084       4.924       4.723       4.445    
        4.102       3.640       2.963       2.384       1.924       1.457      0.9381      0.4979      0.1999       0.000    
  12    10.00       9.909       9.854       9.810       9.776       9.738       9.694       9.616       9.520       9.433    
        9.341       9.242       9.137       9.005       8.903       8.812       8.729       8.677       8.617       8.530    
        8.360       8.133       7.892       7.643       7.304       7.028       6.830       6.519       6.291       6.162    
        6.004       5.791       5.615       5.466       5.364       5.255       5.114       4.933       4.693       4.403    
        4.066       3.615       2.996       2.481       2.065       1.562      0.9885      0.4719      0.1569       0.000    
  13    10.00       9.929       9.878       9.830       9.787       9.743       9.677       9.580       9.480       9.394    
        9.296       9.197       9.086       8.950       8.833       8.742       8.683       8.616       8.530       8.321    
        8.008       7.733       7.474       7.164       6.901       6.781       6.535       6.254       6.142       6.038    
        5.871       5.692       5.569       5.473       5.392       5.292       5.130       4.906       4.672       4.373    
        4.040       3.583       2.945       2.464       2.079       1.529      0.9211      0.4270      0.1234       0.000    
  14    10.00       9.948       9.901       9.850       9.799       9.731       9.634       9.532       9.442       9.344    
        9.247       9.155       9.022       8.870       8.763       8.690       8.592       8.488       8.280       7.912    
        7.580       7.337       6.997       6.746       6.631       6.497       6.244       6.085       5.970       5.869    
        5.731       5.628       5.560       5.486       5.404       5.302       5.120       4.875       4.625       4.322    
        3.966       3.414       2.813       2.425       1.954       1.424      0.9073      0.3897      0.1003       0.000    
  15    10.00       9.959       9.911       9.860       9.800       9.696       9.577       9.488       9.398       9.303    
        9.230       9.122       8.946       8.779       8.681       8.551       8.418       8.284       7.933       7.504    
        7.232       6.888       6.582       6.491       6.423       6.245       6.045       5.889       5.809       5.738    
        5.661       5.607       5.558       5.497       5.411       5.287       5.076       4.797       4.535       4.256    
        3.871       3.334       2.817       2.295       1.724       1.250      0.7796      0.3430      0.1030       0.000    
  16    10.00       9.969       9.923       9.861       9.767       9.639       9.537       9.464       9.383       9.285    
        9.186       9.030       8.826       8.667       8.523       8.368       8.279       8.005       7.496       7.104    
        6.833       6.499       6.388       6.335       6.206       5.982       5.822       5.753       5.734       5.689    
        5.635       5.593       5.554       5.489       5.385       5.229       4.975       4.724       4.518       4.221    
        3.783       3.205       2.609       2.026       1.540       1.071      0.6638      0.3254      0.1098       0.000    
  17    10.00       9.969       9.919       9.838       9.721       9.592       9.507       9.439       9.348       9.238    
        9.071       8.873       8.689       8.515       8.338       8.189       7.966       7.508       7.038       6.771    
        6.507       6.306       6.220       6.095       5.891       5.727       5.687       5.685       5.677       5.641    
        5.602       5.571       5.536       5.473       5.320       5.107       4.890       4.716       4.522       4.148    
        3.562       2.971       2.401       1.828       1.318      0.8667      0.5560      0.2907      0.1195       0.000    
  18    10.00       9.962       9.903       9.805       9.658       9.554       9.487       9.395       9.290       9.135    
        8.932       8.757       8.572       8.337       8.104       7.857       7.532       7.072       6.724       6.493    
        6.281       6.115       5.984       5.804       5.668       5.628       5.619       5.620       5.603       5.579    
        5.560       5.540       5.499       5.390       5.230       5.051       4.873       4.718       4.446       3.943    
        3.344       2.713       2.101       1.630       1.223      0.8123      0.4775      0.2404      0.1152       0.000    
  19    10.00       9.952       9.888       9.745       9.598       9.537       9.461       9.347       9.217       9.050    
        8.866       8.700       8.431       8.074       7.798       7.546       7.155       6.741       6.510       6.334    
        6.117       5.915       5.771       5.634       5.569       5.557       5.554       5.538       5.512       5.509    
        5.503       5.487       5.426       5.323       5.191       5.020       4.861       4.637       4.168       3.644    
        3.158       2.505       1.923       1.548       1.143      0.7329      0.4313      0.2449      0.1255       0.000    
  20    10.00       9.942       9.832       9.686       9.578       9.512       9.429       9.307       9.162       9.011    
        8.821       8.568       8.165       7.813       7.569       7.259       6.874       6.651       6.441       6.197    
        5.958       5.778       5.629       5.534       5.487       5.464       5.435       5.430       5.417       5.427    
        5.432       5.419       5.355       5.263       5.128       4.982       4.783       4.372       3.865       3.446    
        2.917       2.313       1.877       1.514       1.106      0.6509      0.3770      0.2550      0.1314       0.000    
  21    10.00       9.903       9.786       9.663       9.557       9.488       9.398       9.254       9.110       8.967    
        8.711       8.325       7.917       7.653       7.382       7.058       6.774       6.563       6.312       6.054    
        5.827       5.652       5.522       5.422       5.355       5.305       5.288       5.297       5.301       5.319    
        5.341       5.318       5.254       5.169       5.036       4.877       4.564       4.132       3.732       3.223    
        2.721       2.244       1.875       1.508      0.9326      0.5278      0.3819      0.2882      0.1382       0.000    
  22    10.00       9.877       9.737       9.627       9.543       9.459       9.332       9.198       9.071       8.872    
        8.544       8.109       7.788       7.550       7.246       6.916       6.646       6.423       6.195       5.953    
        5.727       5.542       5.368       5.213       5.126       5.106       5.123       5.137       5.175       5.200    
        5.224       5.197       5.146       5.059       4.929       4.771       4.452       4.041       3.517       3.024    
        2.660       2.279       1.835       1.219      0.7291      0.5268      0.4006      0.2668      9.8750E-02   0.000    
  23    10.00       9.841       9.704       9.617       9.529       9.403       9.264       9.165       9.003       8.755    
        8.373       8.002       7.772       7.475       7.082       6.754       6.543       6.363       6.150       5.890    
        5.653       5.436       5.187       4.896       4.683       4.726       4.862       4.950       5.031       5.085    
        5.108       5.097       5.053       4.971       4.851       4.674       4.354       3.844       3.319       2.971    
        2.636       2.156       1.516      0.9856      0.7184      0.5377      0.3849      0.2272      9.0464E-02   0.000    
  24    10.00       9.816       9.718       9.613       9.487       9.355       9.250       9.139       8.984       8.656    
        8.299       8.025       7.763       7.368       6.938       6.703       6.525       6.348       6.107       5.862    
        5.651       5.376       4.977       4.427       3.755       4.026       4.432       4.715       4.883       4.970    
        5.015       5.012       4.980       4.892       4.755       4.531       4.124       3.642       3.248       2.887    
        2.475       1.937       1.364      0.9572      0.7207      0.5245      0.3516      0.2465      0.1210       0.000    
  25    10.00       9.838       9.736       9.605       9.473       9.353       9.247       9.145       8.913       8.596    
        8.321       8.044       7.702       7.269       6.950       6.739       6.537       6.325       6.104       5.893    
        5.650       5.387       4.818       3.771       1.911       3.290       4.036       4.480       4.755       4.899    
        4.955       4.958       4.917       4.794       4.605       4.297       3.911       3.531       3.195       2.771    
        2.274       1.759       1.275      0.9500      0.7478      0.5456      0.3708      0.2583      0.1608       0.000    
  26    10.00       9.859       9.761       9.623       9.481       9.372       9.260       9.110       8.882       8.660    
        8.402       8.023       7.606       7.256       7.014       6.808       6.574       6.312       6.098       5.922    
        5.720       5.459       4.966       4.194       3.340       3.693       4.140       4.471       4.725       4.883    
        4.930       4.922       4.849       4.700       4.490       4.196       3.769       3.406       3.088       2.571    
        2.007       1.553       1.264       1.038      0.8068      0.5894      0.4045      0.2808      0.1641       0.000    
  27    10.00       9.888       9.767       9.643       9.521       9.392       9.267       9.116       8.928       8.725    
        8.401       7.976       7.609       7.318       7.114       6.877       6.572       6.299       6.131       5.986    
        5.828       5.586       5.211       4.754       4.288       4.252       4.420       4.629       4.818       4.912    
        4.928       4.904       4.817       4.652       4.406       4.005       3.601       3.298       2.810       2.262    
        1.819       1.527       1.308       1.110      0.8824      0.6436      0.4396      0.3092      0.1951       0.000    
  28    10.00       9.896       9.797       9.684       9.565       9.429       9.291       9.145       8.982       8.745    
        8.368       7.998       7.679       7.392       7.175       6.944       6.694       6.429       6.190       6.039    
        5.912       5.739       5.497       5.162       4.874       4.702       4.733       4.866       4.931       4.959    
        4.944       4.899       4.791       4.577       4.248       3.829       3.474       3.043       2.530       2.137    
        1.819       1.570       1.356       1.149      0.9276      0.7027      0.4990      0.3523      0.2014       0.000    
  29    10.00       9.904       9.807       9.719       9.602       9.479       9.345       9.195       9.016       8.702    
        8.351       8.037       7.734       7.493       7.247       7.000       6.773       6.559       6.329       6.129    
        5.992       5.858       5.697       5.495       5.221       5.083       5.063       5.068       5.071       5.036    
        4.977       4.884       4.751       4.475       4.064       3.685       3.319       2.864       2.450       2.158    
        1.899       1.625       1.382       1.184      0.9844      0.7437      0.5277      0.3685      0.2044       0.000    
  30    10.00       9.917       9.836       9.760       9.656       9.535       9.413       9.244       9.004       8.719    
        8.364       8.026       7.778       7.538       7.305       7.081       6.897       6.698       6.473       6.260    
        6.091       5.977       5.839       5.702       5.550       5.428       5.384       5.288       5.227       5.132    
        5.006       4.842       4.645       4.349       4.017       3.655       3.260       2.829       2.511       2.244    
        1.935       1.660       1.448       1.222      0.9840      0.7704      0.5630      0.3916      0.2201       0.000    
  31    10.00       9.934       9.868       9.795       9.718       9.621       9.484       9.275       9.002       8.702    
        8.362       8.060       7.834       7.599       7.383       7.177       6.993       6.837       6.612       6.397    
        6.241       6.119       6.011       5.906       5.829       5.717       5.594       5.487       5.356       5.207    
        5.005       4.785       4.575       4.325       4.004       3.617       3.212       2.854       2.626       2.372    
        2.028       1.725       1.483       1.253       1.031      0.8116      0.5972      0.4125      0.2137       0.000    
  32    10.00       9.943       9.896       9.833       9.760       9.669       9.524       9.286       9.039       8.755    
        8.405       8.124       7.911       7.670       7.442       7.275       7.113       6.929       6.748       6.537    
        6.376       6.247       6.151       6.065       5.977       5.884       5.739       5.607       5.450       5.244    
        5.005       4.774       4.546       4.300       3.983       3.632       3.312       3.003       2.742       2.452    
        2.135       1.834       1.578       1.313       1.071      0.8839      0.6596      0.4054      0.1812       0.000    
  33    10.00       9.952       9.916       9.862       9.788       9.691       9.505       9.272       9.072       8.819    
        8.499       8.233       7.983       7.715       7.516       7.373       7.233       7.044       6.844       6.665    
        6.486       6.356       6.242       6.144       6.063       5.972       5.831       5.658       5.494       5.294    
        5.050       4.831       4.587       4.277       3.976       3.661       3.400       3.157       2.863       2.542    
        2.267       1.981       1.698       1.424       1.168      0.9590      0.7074      0.4085      0.1776       0.000    
  34    10.00       9.961       9.933       9.888       9.793       9.652       9.482       9.320       9.114       8.865    
        8.594       8.306       8.029       7.769       7.603       7.485       7.334       7.155       6.932       6.761    
        6.603       6.443       6.319       6.220       6.140       6.031       5.873       5.707       5.526       5.297    
        5.083       4.896       4.661       4.357       4.050       3.755       3.507       3.267       2.961       2.667    
        2.419       2.143       1.833       1.559       1.300       1.059      0.7582      0.4605      0.2414       0.000    
  35    10.00       9.968       9.934       9.871       9.755       9.619       9.497       9.358       9.194       8.926    
        8.632       8.348       8.072       7.855       7.704       7.579       7.421       7.233       7.019       6.817    
        6.670       6.523       6.397       6.301       6.213       6.101       5.925       5.726       5.516       5.280    
        5.114       4.927       4.682       4.459       4.198       3.883       3.604       3.400       3.106       2.789    
        2.548       2.265       1.955       1.685       1.414       1.150      0.8700      0.5767      0.2853       0.000    
  36    10.00       9.961       9.907       9.839       9.733       9.607       9.506       9.388       9.212       8.958    
        8.642       8.346       8.148       7.978       7.830       7.673       7.487       7.300       7.080       6.831    
        6.670       6.559       6.446       6.366       6.275       6.137       5.945       5.725       5.472       5.250    
        5.102       4.949       4.733       4.513       4.293       4.010       3.728       3.506       3.242       2.895    
        2.630       2.315       2.004       1.798       1.534       1.241      0.9600      0.6534      0.3197       0.000    
  37    10.00       9.941       9.885       9.817       9.714       9.605       9.491       9.380       9.222       8.930    
        8.604       8.376       8.257       8.095       7.912       7.758       7.538       7.310       7.044       6.797    
        6.678       6.585       6.477       6.392       6.289       6.126       5.931       5.656       5.420       5.264    
        5.127       4.957       4.742       4.567       4.341       4.072       3.850       3.636       3.338       2.957    
        2.609       2.313       2.096       1.882       1.618       1.339       1.058      0.7207      0.3958       0.000    
  38    10.00       9.933       9.862       9.792       9.702       9.600       9.482       9.362       9.183       8.912    
        8.668       8.485       8.332       8.188       7.995       7.755       7.514       7.260       6.968       6.793    
        6.696       6.579       6.476       6.402       6.290       6.101       5.820       5.559       5.425       5.302    
        5.157       4.976       4.778       4.603       4.381       4.133       3.951       3.733       3.353       2.933    
        2.630       2.382       2.167       1.945       1.711       1.428       1.148      0.8335      0.4120       0.000    
  39    10.00       9.916       9.847       9.784       9.699       9.584       9.461       9.339       9.172       8.950    
        8.760       8.619       8.450       8.257       7.993       7.701       7.432       7.141       6.929       6.810    
        6.675       6.542       6.463       6.393       6.288       6.042       5.751       5.581       5.456       5.328    
        5.166       4.992       4.801       4.623       4.454       4.250       4.009       3.745       3.370       2.978    
        2.659       2.402       2.232       2.046       1.783       1.503       1.219      0.8675      0.4065       0.000    
  40    10.00       9.907       9.842       9.779       9.692       9.576       9.456       9.336       9.188       9.004    
        8.847       8.726       8.527       8.239       7.916       7.625       7.341       7.088       6.928       6.789    
        6.635       6.517       6.446       6.364       6.225       6.008       5.803       5.628       5.485       5.353    
        5.194       5.005       4.823       4.674       4.524       4.317       4.039       3.762       3.381       2.960    
        2.661       2.457       2.270       2.111       1.835       1.528       1.268      0.8698      0.4050       0.000    
  41    10.00       9.916       9.841       9.767       9.674       9.583       9.483       9.372       9.226       9.060    
        8.911       8.769       8.523       8.188       7.856       7.582       7.302       7.058       6.903       6.755    
        6.601       6.496       6.420       6.323       6.177       6.010       5.869       5.698       5.519       5.364    
        5.210       5.038       4.862       4.731       4.572       4.365       4.087       3.704       3.266       2.942    
        2.724       2.527       2.334       2.113       1.825       1.531       1.308      0.9265      0.4201       0.000    
  42    10.00       9.917       9.832       9.767       9.699       9.615       9.509       9.384       9.260       9.134    
        8.950       8.714       8.432       8.114       7.806       7.555       7.282       7.041       6.877       6.709    
        6.566       6.473       6.391       6.302       6.166       6.046       5.925       5.733       5.533       5.392    
        5.264       5.076       4.887       4.760       4.612       4.391       4.049       3.597       3.196       2.954    
        2.790       2.614       2.367       2.073       1.797       1.567       1.336      0.9771      0.4821       0.000    
  43    10.00       9.910       9.839       9.783       9.730       9.649       9.546       9.428       9.293       9.103    
        8.873       8.632       8.367       8.037       7.759       7.527       7.282       7.040       6.833       6.677    
        6.546       6.452       6.380       6.306       6.189       6.064       5.941       5.743       5.568       5.463    
        5.307       5.103       4.920       4.789       4.616       4.331       3.935       3.506       3.214       3.028    
        2.854       2.651       2.349       2.047       1.802       1.581       1.382      0.9908      0.4528       0.000    
  44    10.00       9.910       9.848       9.798       9.735       9.675       9.590       9.436       9.239       9.025    
        8.832       8.588       8.269       7.993       7.769       7.505       7.236       6.984       6.778       6.641    
        6.543       6.461       6.387       6.309       6.208       6.079       5.914       5.749       5.630       5.505    
        5.365       5.187       4.977       4.777       4.566       4.246       3.831       3.478       3.252       3.072    
        2.896       2.656       2.364       2.102       1.841       1.603       1.360      0.8946      0.4114       0.000    
  45    10.00       9.920       9.863       9.798       9.736       9.684       9.549       9.368       9.171       8.986    
        8.828       8.505       8.174       7.972       7.734       7.442       7.151       6.918       6.749       6.638    
        6.563       6.484       6.402       6.310       6.198       6.073       5.933       5.805       5.700       5.569    
        5.407       5.223       5.007       4.754       4.502       4.158       3.768       3.489       3.317       3.132    
        2.897       2.622       2.372       2.134       1.902       1.665       1.270      0.7951      0.4001       0.000    
  46    10.00       9.935       9.875       9.799       9.729       9.628       9.482       9.345       9.180       8.982    
        8.721       8.415       8.150       7.894       7.642       7.359       7.089       6.916       6.777       6.669    
        6.593       6.517       6.413       6.298       6.189       6.083       5.972       5.854       5.749       5.634    
        5.487       5.293       5.047       4.748       4.388       4.029       3.741       3.544       3.364       3.171    
        2.893       2.600       2.351       2.162       1.941       1.632       1.182      0.7595      0.3745       0.000    
  47    10.00       9.948       9.890       9.815       9.695       9.563       9.438       9.331       9.180       8.920    
        8.608       8.327       8.097       7.884       7.615       7.308       7.069       6.904       6.793       6.703    
        6.621       6.532       6.424       6.302       6.195       6.111       6.019       5.902       5.781       5.668    
        5.541       5.378       5.052       4.633       4.281       4.023       3.781       3.611       3.452       3.186    
        2.847       2.536       2.310       2.180       1.935       1.557       1.118      0.7328      0.3703       0.000    
  48    10.00       9.953       9.894       9.783       9.660       9.546       9.420       9.312       9.159       8.867    
        8.527       8.291       8.103       7.842       7.529       7.252       7.072       6.906       6.796       6.726    
        6.642       6.536       6.419       6.308       6.219       6.152       6.069       5.941       5.800       5.678    
        5.545       5.349       5.010       4.662       4.348       4.063       3.847       3.673       3.469       3.131    
        2.766       2.527       2.347       2.116       1.795       1.460       1.083      0.7383      0.3909       0.000    
  49    10.00       9.951       9.862       9.755       9.662       9.540       9.417       9.303       9.111       8.802    
        8.497       8.272       8.036       7.773       7.537       7.278       7.028       6.874       6.807       6.741    
        6.662       6.540       6.405       6.308       6.240       6.190       6.095       5.947       5.799       5.689    
        5.544       5.286       4.988       4.741       4.478       4.164       3.884       3.670       3.430       3.067    
        2.773       2.563       2.315       1.982       1.697       1.395       1.066      0.7505      0.3822       0.000    
  50    10.00       9.938       9.840       9.743       9.668       9.554       9.418       9.273       9.065       8.821    
        8.513       8.211       7.966       7.756       7.566       7.276       6.991       6.875       6.815       6.752    
        6.676       6.539       6.394       6.306       6.252       6.206       6.100       5.941       5.799       5.687    
        5.529       5.258       5.028       4.817       4.532       4.220       3.937       3.652       3.307       2.985    
        2.830       2.609       2.246       1.911       1.672       1.384       1.098      0.7331      0.3011       0.000    

 HEAD WILL BE SAVED ON UNIT   51 AT END OF TIME STEP  84, STRESS PERIOD    2

 DRAWDOWN WILL BE SAVED ON UNIT   52 AT END OF TIME STEP  84, STRESS PERIOD    2
1
  VOLUMETRIC BUDGET FOR ENTIRE MODEL AT END OF TIME STEP 84 IN STRESS PERIOD   2
  ------------------------------------------------------------------------------

     CUMULATIVE VOLUMES      L**3       RATES FOR THIS TIME STEP      L**3/T
     ------------------                 ------------------------

           IN:                                      IN:
           ---                                      ---
             STORAGE =       38917.6992               STORAGE =         392.6057
       CONSTANT HEAD =       48803.3906         CONSTANT HEAD =         638.4780
               WELLS =           0.0000                 WELLS =           0.0000

            TOTAL IN =       87721.0938              TOTAL IN =        1031.0837

          OUT:                                     OUT:
          ----                                     ----
             STORAGE =       9.3745E-03               STORAGE =           0.0000
       CONSTANT HEAD =       45721.0625         CONSTANT HEAD =         531.0837
               WELLS =       42000.0000                 WELLS =         500.0000

           TOTAL OUT =       87721.0703             TOTAL OUT =        1031.0837

            IN - OUT =       2.3438E-02              IN - OUT =           0.0000

 PERCENT DISCREPANCY =           0.00     PERCENT DISCREPANCY =           0.00






          TIME SUMMARY AT END OF TIME STEP  84 IN STRESS PERIOD    2
                    SECONDS     MINUTES      HOURS       DAYS        YEARS
                    -----------------------------------------------------------
   TIME STEP LENGTH  86400.      1440.0      24.000      1.0000     2.73785E-03
 STRESS PERIOD TIME 7.25760E+06 1.20960E+05  2016.0      84.000     0.22998    
         TOTAL TIME 7.34400E+06 1.22400E+05  2040.0      85.000     0.23272    
1
 
 SOLVING FOR HEAD 

 OUTPUT CONTROL FOR STRESS PERIOD    2   TIME STEP  85
    SAVE HEAD FOR ALL LAYERS
    SAVE DRAWDOWN FOR ALL LAYERS
    SAVE BUDGET
    PRINT HEAD FOR ALL LAYERS
    PRINT BUDGET
 UBDSV1 SAVING "         STORAGE" ON UNIT  53 AT TIME STEP 85, STRESS PERIOD   2
 UBDSV2 SAVING "   CONSTANT HEAD" ON UNIT  53 AT TIME STEP 85, STRESS PERIOD   2
 UBDSV1 SAVING "FLOW RIGHT FACE " ON UNIT  53 AT TIME STEP 85, STRESS PERIOD   2
 UBDSV1 SAVING "FLOW FRONT FACE " ON UNIT  53 AT TIME STEP 85, STRESS PERIOD   2
1
              HEAD IN LAYER   1 AT END OF TIME STEP  85 IN STRESS PERIOD    2
  ---------------------------------------------------------------------------

            1           2           3           4           5           6           7           8           9          10
           11          12          13          14          15          16          17          18          19          20
           21          22          23          24          25          26          27          28          29          30
           31          32          33          34          35          36          37          38          39          40
           41          42          43          44          45          46          47          48          49          50
 ........................................................................................................................
   1    10.00       9.951       9.885       9.819       9.764       9.697       9.632       9.563       9.470       9.395    
        9.351       9.306       9.257       9.209       9.131       9.045       8.952       8.880       8.847       8.812    
        8.768       8.731       8.693       8.646       8.581       8.468       8.333       8.202       8.053       7.905    
        7.695       7.362       6.970       6.558       6.096       5.671       5.311       4.978       4.523       4.030    
        3.612       3.199       2.631       2.091       1.714       1.336       1.019      0.8141      0.5400       0.000    
   2    10.00       9.951       9.892       9.825       9.767       9.705       9.632       9.541       9.453       9.395    
        9.355       9.315       9.277       9.217       9.127       9.039       8.954       8.883       8.848       8.807    
        8.763       8.734       8.704       8.654       8.579       8.471       8.335       8.198       8.059       7.911    
        7.683       7.339       6.926       6.460       5.995       5.585       5.263       4.936       4.476       4.012    
        3.590       3.095       2.582       2.156       1.782       1.430       1.068      0.7731      0.4128       0.000    
   3    10.00       9.946       9.889       9.829       9.769       9.698       9.607       9.521       9.465       9.412    
        9.366       9.331       9.294       9.237       9.147       9.037       8.947       8.888       8.845       8.804    
        8.767       8.736       8.706       8.642       8.562       8.452       8.322       8.219       8.070       7.896    
        7.601       7.200       6.758       6.304       5.878       5.499       5.213       4.876       4.376       3.925    
        3.575       3.126       2.656       2.248       1.860       1.505       1.078      0.6632      0.2917       0.000    
   4    10.00       9.951       9.892       9.826       9.753       9.671       9.584       9.520       9.472       9.422    
        9.382       9.353       9.311       9.249       9.167       9.046       8.946       8.892       8.844       8.806    
        8.764       8.727       8.688       8.621       8.538       8.431       8.304       8.187       8.071       7.851    
        7.468       6.974       6.499       6.152       5.838       5.473       5.107       4.678       4.255       3.930    
        3.620       3.225       2.756       2.355       1.949       1.520       1.028      0.5887      0.2742       0.000    
   5    10.00       9.947       9.886       9.810       9.734       9.657       9.582       9.528       9.477       9.434    
        9.399       9.368       9.320       9.247       9.151       9.041       8.955       8.895       8.847       8.793    
        8.743       8.706       8.657       8.588       8.510       8.386       8.260       8.159       8.043       7.757    
        7.250       6.702       6.311       6.049       5.766       5.401       4.983       4.561       4.265       3.992    
        3.714       3.308       2.822       2.473       2.061       1.500      0.9350      0.5432      0.2733       0.000    
   6    10.00       9.934       9.861       9.802       9.730       9.651       9.587       9.538       9.487       9.447    
        9.415       9.376       9.313       9.229       9.146       9.055       8.962       8.888       8.824       8.762    
        8.718       8.678       8.633       8.560       8.444       8.325       8.232       8.122       7.924       7.510    
        6.941       6.443       6.145       5.951       5.723       5.321       4.870       4.541       4.325       4.088    
        3.823       3.458       2.978       2.544       2.035       1.434      0.8384      0.4777      0.2670       0.000    
   7    10.00       9.915       9.847       9.789       9.720       9.663       9.602       9.551       9.508       9.466    
        9.423       9.368       9.291       9.209       9.134       9.059       8.955       8.854       8.786       8.736    
        8.693       8.648       8.602       8.502       8.384       8.289       8.185       8.006       7.666       7.135    
        6.599       6.213       6.032       5.884       5.593       5.191       4.898       4.617       4.388       4.227    
        3.960       3.585       3.072       2.512       1.885       1.195      0.7027      0.4850      0.2457       0.000    
   8    10.00       9.910       9.846       9.784       9.723       9.672       9.620       9.571       9.528       9.488    
        9.426       9.345       9.265       9.192       9.122       9.028       8.904       8.809       8.758       8.710    
        8.659       8.622       8.543       8.435       8.329       8.217       8.018       7.732       7.262       6.803    
        6.410       6.112       5.977       5.796       5.464       5.158       4.917       4.713       4.533       4.345    
        4.070       3.609       3.018       2.379       1.664       1.079      0.7435      0.4758      0.2192       0.000    
   9    10.00       9.914       9.842       9.781       9.737       9.694       9.643       9.595       9.547       9.500    
        9.420       9.321       9.237       9.164       9.078       8.973       8.861       8.777       8.725       8.674    
        8.628       8.567       8.457       8.356       8.246       8.086       7.794       7.363       6.900       6.573    
        6.266       6.054       5.905       5.662       5.359       5.126       4.957       4.806       4.654       4.450    
        4.109       3.630       3.003       2.290       1.632       1.117      0.7585      0.4720      0.2341       0.000    
  10    10.00       9.912       9.839       9.789       9.750       9.708       9.664       9.621       9.564       9.489    
        9.393       9.292       9.211       9.130       9.039       8.917       8.805       8.738       8.692       8.641    
        8.594       8.492       8.374       8.262       8.107       7.863       7.423       6.959       6.601       6.357    
        6.178       6.008       5.803       5.556       5.304       5.133       5.012       4.888       4.718       4.481    
        4.116       3.592       2.922       2.286       1.767       1.280      0.8126      0.5014      0.2643       0.000    
  11    10.00       9.901       9.844       9.802       9.763       9.726       9.686       9.629       9.548       9.463    
        9.366       9.267       9.189       9.080       8.956       8.849       8.770       8.707       8.661       8.605    
        8.519       8.386       8.215       8.048       7.774       7.410       7.022       6.720       6.437       6.267    
        6.117       5.890       5.661       5.480       5.317       5.197       5.077       4.918       4.717       4.439    
        4.097       3.636       2.960       2.381       1.922       1.455      0.9373      0.4974      0.1998       0.000    
  12    10.00       9.909       9.853       9.809       9.776       9.737       9.693       9.615       9.518       9.431    
        9.338       9.240       9.134       9.002       8.900       8.808       8.725       8.674       8.613       8.526    
        8.355       8.127       7.886       7.637       7.297       7.020       6.823       6.511       6.282       6.153    
        5.996       5.783       5.608       5.458       5.357       5.248       5.107       4.926       4.687       4.397    
        4.061       3.611       2.993       2.478       2.063       1.560      0.9876      0.4715      0.1568       0.000    
  13    10.00       9.929       9.877       9.829       9.786       9.742       9.676       9.579       9.478       9.392    
        9.294       9.194       9.083       8.947       8.829       8.738       8.679       8.612       8.525       8.316    
        8.002       7.727       7.467       7.156       6.893       6.773       6.527       6.245       6.133       6.029    
        5.862       5.683       5.561       5.465       5.384       5.284       5.123       4.899       4.665       4.368    
        4.035       3.579       2.942       2.461       2.077       1.527      0.9202      0.4266      0.1233       0.000    
  14    10.00       9.948       9.901       9.850       9.798       9.730       9.633       9.530       9.440       9.342    
        9.244       9.152       9.018       8.866       8.759       8.686       8.588       8.483       8.274       7.906    
        7.573       7.329       6.989       6.738       6.622       6.488       6.235       6.075       5.961       5.860    
        5.722       5.619       5.551       5.478       5.395       5.294       5.112       4.868       4.618       4.316    
        3.960       3.409       2.810       2.422       1.952       1.423      0.9065      0.3893      0.1002       0.000    
  15    10.00       9.959       9.911       9.859       9.799       9.695       9.576       9.486       9.396       9.301    
        9.227       9.119       8.942       8.775       8.677       8.546       8.413       8.279       7.926       7.497    
        7.224       6.880       6.573       6.481       6.414       6.236       6.035       5.879       5.799       5.728    
        5.651       5.598       5.549       5.489       5.402       5.279       5.068       4.790       4.528       4.250    
        3.866       3.330       2.813       2.292       1.722       1.249      0.7789      0.3427      0.1029       0.000    
  16    10.00       9.969       9.923       9.861       9.766       9.638       9.535       9.462       9.381       9.283    
        9.183       9.027       8.822       8.662       8.518       8.363       8.273       7.999       7.489       7.096    
        6.824       6.489       6.379       6.326       6.196       5.972       5.811       5.742       5.724       5.679    
        5.626       5.584       5.544       5.480       5.376       5.221       4.967       4.716       4.512       4.215    
        3.778       3.200       2.605       2.024       1.539       1.070      0.6631      0.3250      0.1097       0.000    
  17    10.00       9.969       9.919       9.837       9.720       9.591       9.505       9.437       9.346       9.236    
        9.068       8.869       8.685       8.510       8.332       8.183       7.959       7.501       7.029       6.762    
        6.497       6.296       6.210       6.085       5.881       5.716       5.677       5.675       5.667       5.631    
        5.592       5.561       5.526       5.464       5.311       5.099       4.882       4.709       4.515       4.142    
        3.557       2.967       2.398       1.826       1.316      0.8657      0.5554      0.2904      0.1194       0.000    
  18    10.00       9.961       9.903       9.804       9.656       9.552       9.484       9.392       9.287       9.132    
        8.928       8.752       8.567       8.331       8.097       7.850       7.524       7.063       6.715       6.483    
        6.271       6.105       5.973       5.793       5.657       5.617       5.609       5.610       5.593       5.568    
        5.550       5.530       5.489       5.381       5.220       5.043       4.864       4.710       4.439       3.937    
        3.339       2.709       2.098       1.628       1.221      0.8114      0.4770      0.2402      0.1151       0.000    
  19    10.00       9.952       9.887       9.744       9.596       9.535       9.458       9.344       9.214       9.047    
        8.861       8.695       8.425       8.067       7.790       7.538       7.146       6.732       6.500       6.324    
        6.106       5.904       5.760       5.623       5.558       5.546       5.543       5.527       5.501       5.498    
        5.492       5.477       5.416       5.313       5.181       5.011       4.852       4.629       4.161       3.638    
        3.154       2.502       1.920       1.546       1.142      0.7321      0.4308      0.2446      0.1253       0.000    
  20    10.00       9.941       9.832       9.684       9.577       9.510       9.427       9.304       9.159       9.007    
        8.816       8.562       8.159       7.805       7.561       7.250       6.865       6.641       6.431       6.186    
        5.947       5.767       5.618       5.523       5.476       5.453       5.424       5.419       5.406       5.416    
        5.421       5.408       5.344       5.252       5.118       4.973       4.774       4.365       3.858       3.440    
        2.913       2.310       1.875       1.513       1.104      0.6502      0.3766      0.2548      0.1313       0.000    
  21    10.00       9.903       9.785       9.661       9.555       9.486       9.395       9.251       9.106       8.962    
        8.706       8.318       7.910       7.645       7.373       7.048       6.765       6.553       6.301       6.044    
        5.816       5.641       5.511       5.411       5.344       5.294       5.277       5.286       5.290       5.308    
        5.330       5.306       5.243       5.159       5.026       4.867       4.555       4.125       3.726       3.218    
        2.718       2.241       1.873       1.507      0.9315      0.5273      0.3815      0.2879      0.1381       0.000    
  22    10.00       9.877       9.736       9.625       9.541       9.457       9.329       9.195       9.067       8.867    
        8.539       8.102       7.780       7.542       7.238       6.906       6.636       6.413       6.184       5.942    
        5.717       5.531       5.357       5.202       5.115       5.095       5.112       5.126       5.164       5.188    
        5.212       5.186       5.135       5.048       4.919       4.761       4.444       4.033       3.511       3.019    
        2.656       2.276       1.832       1.218      0.7284      0.5262      0.4002      0.2666      9.8658E-02   0.000    
  23    10.00       9.841       9.703       9.616       9.527       9.400       9.261       9.161       8.999       8.750    
        8.367       7.995       7.764       7.466       7.072       6.745       6.533       6.353       6.139       5.879    
        5.642       5.425       5.176       4.884       4.672       4.715       4.850       4.939       5.019       5.073    
        5.096       5.086       5.041       4.960       4.840       4.664       4.345       3.838       3.314       2.967    
        2.633       2.153       1.514      0.9845      0.7177      0.5372      0.3845      0.2270      9.0385E-02   0.000    
  24    10.00       9.816       9.716       9.611       9.484       9.353       9.246       9.135       8.979       8.650    
        8.292       8.017       7.756       7.359       6.928       6.693       6.515       6.338       6.096       5.851    
        5.640       5.365       4.966       4.415       3.743       4.014       4.421       4.703       4.871       4.958    
        5.003       5.000       4.969       4.881       4.745       4.521       4.116       3.635       3.243       2.883    
        2.472       1.935       1.362      0.9563      0.7201      0.5241      0.3513      0.2463      0.1209       0.000    
  25    10.00       9.837       9.735       9.603       9.470       9.350       9.244       9.142       8.909       8.590    
        8.314       8.037       7.694       7.260       6.940       6.729       6.527       6.314       6.093       5.882    
        5.640       5.376       4.807       3.759       1.899       3.278       4.024       4.468       4.743       4.887    
        4.943       4.946       4.906       4.783       4.595       4.288       3.904       3.525       3.190       2.767    
        2.271       1.758       1.274      0.9492      0.7472      0.5452      0.3705      0.2581      0.1607       0.000    
  26    10.00       9.859       9.760       9.621       9.479       9.370       9.257       9.107       8.877       8.655    
        8.396       8.016       7.598       7.247       7.005       6.798       6.564       6.301       6.087       5.911    
        5.709       5.448       4.955       4.183       3.328       3.681       4.128       4.458       4.712       4.871    
        4.918       4.910       4.838       4.689       4.480       4.187       3.762       3.400       3.083       2.568    
        2.004       1.552       1.262       1.037      0.8062      0.5889      0.4041      0.2806      0.1640       0.000    
  27    10.00       9.888       9.766       9.641       9.519       9.389       9.264       9.113       8.923       8.720    
        8.395       7.968       7.601       7.310       7.105       6.867       6.562       6.289       6.121       5.976    
        5.817       5.575       5.200       4.742       4.276       4.240       4.407       4.617       4.805       4.900    
        4.916       4.892       4.806       4.642       4.396       3.998       3.594       3.292       2.806       2.259    
        1.817       1.525       1.307       1.109      0.8817      0.6431      0.4393      0.3090      0.1950       0.000    
  28    10.00       9.896       9.796       9.683       9.563       9.427       9.288       9.142       8.978       8.741    
        8.362       7.991       7.671       7.384       7.166       6.934       6.684       6.419       6.180       6.029    
        5.902       5.729       5.486       5.150       4.862       4.690       4.720       4.853       4.918       4.946    
        4.932       4.888       4.780       4.567       4.240       3.822       3.468       3.039       2.527       2.135    
        1.817       1.568       1.354       1.148      0.9269      0.7021      0.4987      0.3521      0.2013       0.000    
  29    10.00       9.903       9.806       9.717       9.600       9.477       9.342       9.192       9.012       8.697    
        8.345       8.031       7.727       7.485       7.238       6.991       6.763       6.550       6.319       6.118    
        5.981       5.848       5.686       5.484       5.209       5.072       5.051       5.056       5.059       5.024    
        4.966       4.873       4.740       4.466       4.057       3.679       3.314       2.860       2.447       2.156    
        1.897       1.624       1.381       1.183      0.9837      0.7432      0.5273      0.3682      0.2042       0.000    
  30    10.00       9.916       9.836       9.759       9.654       9.533       9.411       9.241       9.000       8.714    
        8.358       8.019       7.771       7.530       7.297       7.072       6.888       6.689       6.463       6.250    
        6.080       5.967       5.828       5.691       5.539       5.416       5.373       5.277       5.216       5.120    
        4.995       4.833       4.636       4.342       4.011       3.650       3.255       2.826       2.509       2.242    
        1.933       1.659       1.447       1.221      0.9833      0.7699      0.5626      0.3914      0.2200       0.000    
  31    10.00       9.934       9.868       9.795       9.717       9.619       9.482       9.272       8.999       8.697    
        8.357       8.053       7.827       7.591       7.375       7.169       6.984       6.828       6.602       6.387    
        6.231       6.109       6.000       5.895       5.819       5.706       5.583       5.476       5.345       5.196    
        4.996       4.777       4.568       4.319       3.998       3.613       3.208       2.851       2.623       2.369    
        2.027       1.724       1.482       1.253       1.031      0.8111      0.5969      0.4123      0.2135       0.000    
  32    10.00       9.943       9.896       9.833       9.759       9.667       9.522       9.283       9.036       8.751    
        8.399       8.118       7.904       7.663       7.435       7.267       7.105       6.920       6.739       6.527    
        6.366       6.237       6.141       6.055       5.967       5.874       5.729       5.597       5.440       5.235    
        4.997       4.766       4.539       4.295       3.978       3.628       3.309       3.001       2.740       2.450    
        2.134       1.833       1.577       1.312       1.070      0.8834      0.6593      0.4052      0.1811       0.000    
  33    10.00       9.952       9.915       9.862       9.788       9.690       9.503       9.269       9.069       8.815    
        8.494       8.227       7.977       7.708       7.509       7.365       7.225       7.035       6.835       6.656    
        6.477       6.347       6.232       6.135       6.054       5.962       5.822       5.649       5.486       5.286    
        5.043       4.824       4.581       4.272       3.972       3.657       3.397       3.154       2.860       2.541    
        2.265       1.979       1.697       1.423       1.167      0.9585      0.7070      0.4083      0.1775       0.000    
  34    10.00       9.961       9.933       9.888       9.792       9.651       9.480       9.318       9.111       8.861    
        8.589       8.301       8.023       7.763       7.597       7.478       7.327       7.147       6.923       6.752    
        6.595       6.434       6.310       6.211       6.131       6.022       5.864       5.698       5.518       5.290    
        5.077       4.890       4.656       4.353       4.046       3.751       3.504       3.265       2.959       2.666    
        2.417       2.142       1.833       1.559       1.299       1.059      0.7580      0.4603      0.2414       0.000    
  35    10.00       9.968       9.934       9.870       9.754       9.618       9.496       9.356       9.191       8.923    
        8.627       8.343       8.066       7.849       7.697       7.572       7.413       7.225       7.011       6.809    
        6.662       6.515       6.389       6.293       6.205       6.093       5.917       5.718       5.509       5.274    
        5.109       4.922       4.678       4.455       4.195       3.880       3.602       3.398       3.104       2.788    
        2.547       2.264       1.954       1.684       1.413       1.150      0.8697      0.5765      0.2852       0.000    
  36    10.00       9.961       9.907       9.839       9.732       9.606       9.504       9.387       9.210       8.955    
        8.638       8.341       8.143       7.973       7.824       7.666       7.480       7.293       7.073       6.824    
        6.663       6.552       6.439       6.359       6.268       6.130       5.938       5.719       5.467       5.245    
        5.098       4.946       4.729       4.510       4.290       4.007       3.726       3.505       3.240       2.894    
        2.629       2.314       2.004       1.797       1.534       1.241      0.9597      0.6532      0.3196       0.000    
  37    10.00       9.940       9.884       9.816       9.713       9.604       9.490       9.378       9.219       8.927    
        8.601       8.372       8.252       8.090       7.906       7.752       7.532       7.304       7.038       6.791    
        6.671       6.578       6.470       6.385       6.282       6.119       5.925       5.651       5.416       5.260    
        5.123       4.954       4.739       4.564       4.338       4.070       3.848       3.634       3.337       2.956    
        2.608       2.312       2.095       1.881       1.617       1.339       1.058      0.7205      0.3957       0.000    
  38    10.00       9.933       9.862       9.792       9.702       9.599       9.480       9.361       9.181       8.909    
        8.665       8.481       8.328       8.183       7.990       7.750       7.509       7.254       6.962       6.787    
        6.690       6.573       6.471       6.396       6.285       6.096       5.815       5.555       5.422       5.299    
        5.154       4.973       4.775       4.600       4.379       4.131       3.949       3.731       3.351       2.932    
        2.630       2.381       2.166       1.945       1.711       1.428       1.148      0.8333      0.4118       0.000    
  39    10.00       9.915       9.846       9.784       9.698       9.583       9.459       9.337       9.170       8.948    
        8.757       8.616       8.446       8.253       7.988       7.696       7.427       7.136       6.924       6.804    
        6.670       6.537       6.458       6.388       6.283       6.038       5.747       5.577       5.453       5.325    
        5.163       4.989       4.798       4.621       4.452       4.248       4.007       3.743       3.369       2.977    
        2.658       2.401       2.231       2.046       1.783       1.503       1.219      0.8673      0.4064       0.000    
  40    10.00       9.907       9.841       9.779       9.692       9.575       9.455       9.335       9.186       9.002    
        8.845       8.723       8.524       8.235       7.912       7.620       7.336       7.084       6.924       6.785    
        6.631       6.513       6.442       6.360       6.221       6.005       5.799       5.625       5.482       5.351    
        5.191       5.003       4.821       4.672       4.522       4.315       4.037       3.760       3.379       2.959    
        2.660       2.456       2.270       2.111       1.834       1.527       1.268      0.8695      0.4049       0.000    
  41    10.00       9.916       9.841       9.766       9.674       9.582       9.482       9.371       9.224       9.058    
        8.908       8.766       8.521       8.185       7.852       7.578       7.298       7.054       6.900       6.751    
        6.598       6.492       6.417       6.320       6.174       6.007       5.866       5.695       5.516       5.361    
        5.208       5.036       4.860       4.729       4.570       4.363       4.085       3.702       3.265       2.941    
        2.723       2.526       2.333       2.112       1.824       1.530       1.308      0.9262      0.4200       0.000    
  42    10.00       9.917       9.832       9.767       9.699       9.614       9.508       9.383       9.259       9.132    
        8.948       8.712       8.429       8.111       7.803       7.552       7.279       7.037       6.873       6.706    
        6.563       6.470       6.388       6.299       6.163       6.044       5.922       5.730       5.531       5.390    
        5.262       5.074       4.885       4.758       4.610       4.389       4.047       3.596       3.195       2.953    
        2.789       2.613       2.367       2.073       1.796       1.567       1.336      0.9768      0.4820       0.000    
  43    10.00       9.910       9.839       9.783       9.729       9.649       9.545       9.427       9.291       9.102    
        8.871       8.631       8.365       8.035       7.756       7.524       7.279       7.037       6.830       6.674    
        6.543       6.449       6.378       6.303       6.186       6.061       5.939       5.741       5.566       5.461    
        5.305       5.101       4.918       4.787       4.614       4.329       3.934       3.505       3.213       3.027    
        2.853       2.650       2.348       2.046       1.802       1.580       1.382      0.9905      0.4527       0.000    
  44    10.00       9.910       9.848       9.798       9.734       9.674       9.589       9.435       9.238       9.024    
        8.831       8.586       8.268       7.991       7.767       7.502       7.233       6.982       6.775       6.638    
        6.540       6.458       6.384       6.306       6.205       6.077       5.912       5.747       5.628       5.502    
        5.362       5.184       4.975       4.775       4.565       4.245       3.830       3.477       3.250       3.071    
        2.895       2.655       2.363       2.102       1.840       1.603       1.359      0.8943      0.4113       0.000    
  45    10.00       9.920       9.863       9.798       9.736       9.684       9.549       9.368       9.170       8.985    
        8.827       8.503       8.172       7.970       7.732       7.440       7.149       6.915       6.747       6.636    
        6.560       6.482       6.400       6.308       6.195       6.070       5.930       5.802       5.698       5.567    
        5.405       5.221       5.005       4.752       4.500       4.156       3.766       3.488       3.316       3.131    
        2.896       2.621       2.371       2.133       1.902       1.665       1.270      0.7948      0.4000       0.000    
  46    10.00       9.935       9.875       9.799       9.728       9.627       9.481       9.345       9.179       8.981    
        8.720       8.413       8.148       7.893       7.640       7.357       7.087       6.913       6.774       6.666    
        6.590       6.514       6.411       6.295       6.187       6.080       5.970       5.852       5.746       5.631    
        5.485       5.291       5.045       4.746       4.386       4.028       3.739       3.543       3.362       3.170    
        2.892       2.599       2.350       2.162       1.940       1.632       1.182      0.7593      0.3744       0.000    
  47    10.00       9.948       9.890       9.815       9.695       9.562       9.437       9.331       9.179       8.919    
        8.607       8.325       8.095       7.882       7.613       7.306       7.066       6.902       6.791       6.701    
        6.618       6.530       6.422       6.300       6.193       6.109       6.016       5.900       5.778       5.666    
        5.538       5.376       5.050       4.632       4.280       4.022       3.779       3.610       3.451       3.184    
        2.846       2.535       2.310       2.179       1.935       1.557       1.118      0.7326      0.3702       0.000    
  48    10.00       9.953       9.894       9.783       9.660       9.545       9.420       9.311       9.159       8.866    
        8.525       8.290       8.101       7.840       7.527       7.249       7.069       6.904       6.793       6.723    
        6.640       6.534       6.417       6.305       6.217       6.149       6.067       5.938       5.797       5.676    
        5.542       5.347       5.008       4.661       4.346       4.061       3.845       3.672       3.468       3.130    
        2.765       2.526       2.347       2.116       1.794       1.459       1.083      0.7381      0.3908       0.000    
  49    10.00       9.951       9.862       9.755       9.662       9.539       9.417       9.303       9.110       8.801    
        8.496       8.271       8.035       7.771       7.535       7.276       7.026       6.872       6.804       6.739    
        6.660       6.538       6.402       6.305       6.238       6.188       6.093       5.945       5.797       5.686    
        5.542       5.284       4.986       4.740       4.476       4.162       3.883       3.668       3.429       3.066    
        2.772       2.562       2.314       1.981       1.696       1.394       1.065      0.7503      0.3821       0.000    
  50    10.00       9.938       9.840       9.742       9.668       9.553       9.418       9.272       9.065       8.820    
        8.511       8.210       7.964       7.754       7.564       7.274       6.989       6.872       6.813       6.750    
        6.674       6.536       6.392       6.303       6.250       6.204       6.098       5.938       5.797       5.685    
        5.527       5.256       5.026       4.815       4.531       4.219       3.936       3.651       3.306       2.985    
        2.829       2.608       2.246       1.911       1.672       1.384       1.098      0.7330      0.3011       0.000    

 HEAD WILL BE SAVED ON UNIT   51 AT END OF TIME STEP  85, STRESS PERIOD    2

 DRAWDOWN WILL BE SAVED ON UNIT   52 AT END OF TIME STEP  85, STRESS PERIOD    2
1
  VOLUMETRIC BUDGET FOR ENTIRE MODEL AT END OF TIME STEP 85 IN STRESS PERIOD   2
  ------------------------------------------------------------------------------

     CUMULATIVE VOLUMES      L**3       RATES FOR THIS TIME STEP      L**3/T
     ------------------                 ------------------------

           IN:                                      IN:
           ---                                      ---
             STORAGE =       39308.2969               STORAGE =         390.5992
       CONSTANT HEAD =       49443.5586         CONSTANT HEAD =         640.1662
               WELLS =           0.0000                 WELLS =           0.0000

            TOTAL IN =       88751.8594              TOTAL IN =        1030.7654

          OUT:                                     OUT:
          ----                                     ----
             STORAGE =       9.3745E-03               STORAGE =           0.0000
       CONSTANT HEAD =       46251.8281         CONSTANT HEAD =         530.7650
               WELLS =       42500.0000                 WELLS =         500.0000

           TOTAL OUT =       88751.8359             TOTAL OUT =        1030.7649

            IN - OUT =       2.3438E-02              IN - OUT =       4.8828E-04

 PERCENT DISCREPANCY =           0.00     PERCENT DISCREPANCY =           0.00






          TIME SUMMARY AT END OF TIME STEP  85 IN STRESS PERIOD    2
                    SECONDS     MINUTES      HOURS       DAYS        YEARS
                    -----------------------------------------------------------
   TIME STEP LENGTH  86400.      1440.0      24.000      1.0000     2.73785E-03
 STRESS PERIOD TIME 7.34400E+06 1.22400E+05  2040.0      85.000     0.23272    
         TOTAL TIME 7.43040E+06 1.23840E+05  2064.0      86.000     0.23546    
1
 
 SOLVING FOR HEAD 

 OUTPUT CONTROL FOR STRESS PERIOD    2   TIME STEP  86
    SAVE HEAD FOR ALL LAYERS
    SAVE DRAWDOWN FOR ALL LAYERS
    SAVE BUDGET
    PRINT HEAD FOR ALL LAYERS
    PRINT BUDGET
 UBDSV1 SAVING "         STORAGE" ON UNIT  53 AT TIME STEP 86, STRESS PERIOD   2
 UBDSV2 SAVING "   CONSTANT HEAD" ON UNIT  53 AT TIME STEP 86, STRESS PERIOD   2
 UBDSV1 SAVING "FLOW RIGHT FACE " ON UNIT  53 AT TIME STEP 86, STRESS PERIOD   2
 UBDSV1 SAVING "FLOW FRONT FACE " ON UNIT  53 AT TIME STEP 86, STRESS PERIOD   2
1
              HEAD IN LAYER   1 AT END OF TIME STEP  86 IN STRESS PERIOD    2
  ---------------------------------------------------------------------------

            1           2           3           4           5           6           7           8           9          10
           11          12          13          14          15          16          17          18          19          20
           21          22          23          24          25          26          27          28          29          30
           31          32          33          34          35          36          37          38          39          40
           41          42          43          44          45          46          47          48          49          50
 ........................................................................................................................
   1    10.00       9.951       9.885       9.819       9.764       9.696       9.630       9.561       9.469       9.393    
        9.349       9.304       9.255       9.206       9.128       9.042       8.950       8.877       8.844       8.809    
        8.765       8.728       8.690       8.643       8.578       8.465       8.330       8.199       8.049       7.901    
        7.691       7.358       6.966       6.554       6.092       5.667       5.307       4.974       4.520       4.027    
        3.609       3.196       2.628       2.089       1.712       1.335       1.018      0.8134      0.5395       0.000    
   2    10.00       9.951       9.891       9.825       9.766       9.704       9.631       9.540       9.451       9.393    
        9.353       9.313       9.275       9.215       9.125       9.036       8.951       8.880       8.845       8.804    
        8.759       8.731       8.701       8.651       8.576       8.468       8.331       8.195       8.055       7.907    
        7.679       7.335       6.922       6.456       5.991       5.581       5.259       4.932       4.472       4.009    
        3.587       3.092       2.580       2.154       1.780       1.429       1.068      0.7724      0.4125       0.000    
   3    10.00       9.946       9.889       9.828       9.769       9.697       9.606       9.520       9.463       9.410    
        9.364       9.329       9.292       9.234       9.145       9.034       8.944       8.885       8.841       8.801    
        8.763       8.733       8.702       8.639       8.558       8.448       8.318       8.215       8.066       7.892    
        7.597       7.196       6.753       6.300       5.874       5.495       5.209       4.872       4.372       3.922    
        3.572       3.123       2.653       2.246       1.858       1.504       1.077      0.6626      0.2914       0.000    
   4    10.00       9.950       9.892       9.826       9.752       9.670       9.582       9.519       9.470       9.420    
        9.380       9.351       9.309       9.247       9.164       9.044       8.943       8.889       8.841       8.803    
        8.760       8.724       8.685       8.617       8.534       8.427       8.300       8.183       8.067       7.846    
        7.463       6.969       6.494       6.147       5.833       5.469       5.103       4.674       4.251       3.926    
        3.617       3.222       2.754       2.353       1.947       1.519       1.027      0.5882      0.2740       0.000    
   5    10.00       9.947       9.885       9.809       9.733       9.656       9.580       9.526       9.476       9.433    
        9.398       9.366       9.318       9.245       9.148       9.038       8.953       8.892       8.844       8.790    
        8.740       8.702       8.653       8.584       8.506       8.383       8.256       8.155       8.039       7.753    
        7.245       6.697       6.305       6.043       5.761       5.396       4.978       4.556       4.261       3.988    
        3.710       3.305       2.819       2.470       2.059       1.499      0.9341      0.5427      0.2731       0.000    
   6    10.00       9.934       9.861       9.801       9.730       9.650       9.586       9.537       9.485       9.446    
        9.413       9.374       9.311       9.227       9.144       9.052       8.959       8.885       8.821       8.759    
        8.715       8.674       8.629       8.556       8.440       8.321       8.227       8.118       7.920       7.505    
        6.936       6.438       6.139       5.945       5.718       5.315       4.864       4.536       4.320       4.084    
        3.819       3.454       2.975       2.542       2.033       1.433      0.8376      0.4773      0.2667       0.000    
   7    10.00       9.915       9.846       9.788       9.719       9.662       9.601       9.550       9.506       9.464    
        9.422       9.366       9.289       9.207       9.132       9.056       8.952       8.850       8.783       8.732    
        8.689       8.645       8.598       8.498       8.380       8.285       8.181       8.001       7.661       7.129    
        6.593       6.207       6.026       5.878       5.587       5.186       4.892       4.612       4.383       4.222    
        3.956       3.582       3.069       2.510       1.883       1.194      0.7020      0.4846      0.2454       0.000    
   8    10.00       9.910       9.846       9.784       9.722       9.671       9.619       9.569       9.527       9.486    
        9.424       9.343       9.262       9.190       9.119       9.025       8.901       8.806       8.754       8.706    
        8.655       8.618       8.539       8.431       8.325       8.213       8.013       7.727       7.257       6.797    
        6.403       6.105       5.971       5.790       5.458       5.152       4.911       4.707       4.528       4.340    
        4.066       3.606       3.015       2.377       1.662       1.078      0.7428      0.4753      0.2190       0.000    
   9    10.00       9.914       9.842       9.781       9.737       9.693       9.642       9.594       9.545       9.498    
        9.418       9.318       9.235       9.161       9.076       8.970       8.858       8.774       8.721       8.670    
        8.625       8.563       8.453       8.352       8.241       8.082       7.789       7.358       6.893       6.566    
        6.259       6.048       5.898       5.655       5.352       5.120       4.950       4.800       4.648       4.444    
        4.105       3.626       2.999       2.287       1.630       1.116      0.7578      0.4715      0.2338       0.000    
  10    10.00       9.912       9.839       9.789       9.749       9.707       9.663       9.620       9.563       9.488    
        9.391       9.290       9.208       9.127       9.036       8.913       8.802       8.734       8.688       8.637    
        8.590       8.488       8.369       8.258       8.102       7.858       7.417       6.952       6.594       6.349    
        6.170       6.001       5.796       5.549       5.297       5.127       5.005       4.882       4.712       4.476    
        4.111       3.588       2.919       2.284       1.765       1.278      0.8118      0.5009      0.2641       0.000    
  11    10.00       9.900       9.844       9.802       9.762       9.725       9.685       9.628       9.546       9.461    
        9.364       9.265       9.186       9.078       8.953       8.845       8.766       8.703       8.657       8.601    
        8.515       8.382       8.210       8.043       7.768       7.404       7.015       6.712       6.429       6.259    
        6.109       5.883       5.654       5.472       5.310       5.190       5.071       4.912       4.711       4.434    
        4.092       3.631       2.956       2.379       1.920       1.454      0.9364      0.4969      0.1996       0.000    
  12    10.00       9.909       9.853       9.808       9.775       9.737       9.692       9.613       9.517       9.429    
        9.336       9.237       9.131       8.999       8.896       8.804       8.721       8.670       8.609       8.522    
        8.350       8.122       7.880       7.631       7.289       7.013       6.815       6.503       6.274       6.145    
        5.988       5.775       5.600       5.450       5.349       5.241       5.100       4.920       4.681       4.391    
        4.056       3.607       2.989       2.475       2.061       1.559      0.9867      0.4710      0.1567       0.000    
  13    10.00       9.929       9.877       9.829       9.786       9.741       9.675       9.577       9.477       9.390    
        9.292       9.192       9.080       8.943       8.826       8.734       8.675       8.607       8.521       8.311    
        7.997       7.721       7.460       7.149       6.885       6.764       6.518       6.237       6.124       6.020    
        5.854       5.675       5.553       5.457       5.376       5.277       5.115       4.892       4.659       4.362    
        4.030       3.574       2.938       2.458       2.075       1.526      0.9194      0.4262      0.1232       0.000    
  14    10.00       9.948       9.901       9.849       9.798       9.729       9.631       9.528       9.438       9.339    
        9.241       9.149       9.015       8.862       8.755       8.682       8.584       8.478       8.269       7.900    
        7.566       7.322       6.981       6.729       6.613       6.479       6.226       6.066       5.951       5.850    
        5.713       5.610       5.542       5.470       5.387       5.287       5.105       4.861       4.612       4.310    
        3.955       3.405       2.807       2.420       1.949       1.422      0.9056      0.3890      0.1002       0.000    
  15    10.00       9.958       9.911       9.859       9.799       9.694       9.574       9.484       9.394       9.298    
        9.224       9.116       8.938       8.771       8.672       8.541       8.408       8.273       7.920       7.489    
        7.216       6.871       6.564       6.472       6.404       6.226       6.025       5.870       5.790       5.719    
        5.642       5.588       5.540       5.480       5.394       5.270       5.060       4.783       4.521       4.244    
        3.860       3.326       2.810       2.289       1.720       1.247      0.7781      0.3424      0.1028       0.000    
  16    10.00       9.969       9.922       9.860       9.765       9.637       9.533       9.460       9.378       9.280    
        9.180       9.023       8.818       8.658       8.513       8.358       8.267       7.993       7.481       7.088    
        6.816       6.480       6.369       6.316       6.186       5.962       5.801       5.732       5.714       5.670    
        5.616       5.574       5.535       5.471       5.367       5.212       4.959       4.709       4.505       4.209    
        3.773       3.196       2.602       2.022       1.537       1.069      0.6624      0.3247      0.1095       0.000    
  17    10.00       9.969       9.919       9.837       9.718       9.589       9.503       9.435       9.343       9.233    
        9.064       8.865       8.680       8.505       8.326       8.177       7.952       7.493       7.021       6.752    
        6.488       6.287       6.200       6.075       5.871       5.706       5.667       5.665       5.656       5.621    
        5.582       5.552       5.516       5.455       5.302       5.090       4.874       4.701       4.508       4.135    
        3.552       2.963       2.395       1.824       1.315      0.8648      0.5549      0.2901      0.1192       0.000    
  18    10.00       9.961       9.902       9.803       9.655       9.551       9.482       9.390       9.284       9.129    
        8.924       8.748       8.562       8.326       8.091       7.843       7.517       7.054       6.706       6.474    
        6.261       6.094       5.963       5.783       5.646       5.606       5.598       5.599       5.582       5.558    
        5.540       5.520       5.479       5.371       5.211       5.034       4.856       4.703       4.432       3.931    
        3.334       2.706       2.096       1.626       1.220      0.8105      0.4765      0.2399      0.1150       0.000    
  19    10.00       9.952       9.887       9.743       9.594       9.533       9.456       9.341       9.210       9.043    
        8.857       8.690       8.420       8.061       7.783       7.530       7.138       6.722       6.490       6.314    
        6.096       5.894       5.749       5.612       5.547       5.535       5.533       5.516       5.491       5.487    
        5.482       5.467       5.406       5.303       5.172       5.002       4.844       4.621       4.154       3.633    
        3.149       2.498       1.918       1.544       1.141      0.7313      0.4304      0.2444      0.1252       0.000    
  20    10.00       9.941       9.831       9.683       9.575       9.508       9.424       9.301       9.155       9.003    
        8.811       8.557       8.152       7.798       7.553       7.242       6.855       6.631       6.421       6.176    
        5.937       5.757       5.607       5.512       5.465       5.442       5.413       5.408       5.395       5.405    
        5.411       5.398       5.334       5.242       5.109       4.964       4.765       4.357       3.852       3.435    
        2.909       2.307       1.872       1.511       1.103      0.6495      0.3763      0.2545      0.1312       0.000    
  21    10.00       9.902       9.784       9.660       9.553       9.483       9.393       9.248       9.103       8.958    
        8.701       8.312       7.903       7.637       7.365       7.039       6.755       6.543       6.291       6.033    
        5.806       5.630       5.500       5.400       5.333       5.283       5.266       5.275       5.279       5.297    
        5.319       5.295       5.232       5.148       5.016       4.858       4.547       4.118       3.720       3.214    
        2.714       2.238       1.871       1.505      0.9305      0.5267      0.3811      0.2876      0.1380       0.000    
  22    10.00       9.876       9.734       9.623       9.539       9.454       9.326       9.191       9.063       8.863    
        8.533       8.095       7.772       7.533       7.229       6.897       6.626       6.403       6.174       5.931    
        5.706       5.520       5.346       5.191       5.104       5.084       5.100       5.114       5.152       5.177    
        5.201       5.174       5.124       5.037       4.908       4.751       4.435       4.026       3.505       3.015    
        2.652       2.273       1.830       1.216      0.7277      0.5257      0.3998      0.2663      9.8564E-02   0.000    
  23    10.00       9.840       9.701       9.614       9.524       9.398       9.258       9.158       8.995       8.745    
        8.361       7.988       7.756       7.458       7.063       6.735       6.523       6.343       6.129       5.868    
        5.631       5.414       5.165       4.873       4.660       4.703       4.839       4.927       5.007       5.062    
        5.085       5.074       5.030       4.949       4.830       4.654       4.336       3.831       3.308       2.962    
        2.629       2.150       1.512      0.9835      0.7170      0.5367      0.3842      0.2268      9.0305E-02   0.000    
  24    10.00       9.815       9.715       9.610       9.482       9.350       9.243       9.132       8.975       8.645    
        8.286       8.010       7.748       7.350       6.919       6.684       6.505       6.328       6.085       5.840    
        5.629       5.354       4.955       4.404       3.731       4.002       4.409       4.692       4.860       4.946    
        4.991       4.988       4.957       4.870       4.734       4.512       4.108       3.629       3.238       2.878    
        2.468       1.933       1.361      0.9553      0.7194      0.5236      0.3510      0.2461      0.1208       0.000    
  25    10.00       9.836       9.734       9.601       9.468       9.347       9.240       9.138       8.905       8.585    
        8.308       8.029       7.686       7.251       6.931       6.720       6.517       6.304       6.083       5.872    
        5.629       5.365       4.796       3.748       1.887       3.266       4.012       4.456       4.731       4.875    
        4.931       4.934       4.894       4.772       4.585       4.279       3.896       3.519       3.185       2.763    
        2.268       1.756       1.272      0.9483      0.7465      0.5447      0.3702      0.2579      0.1605       0.000    
  26    10.00       9.858       9.759       9.619       9.477       9.367       9.254       9.103       8.873       8.650    
        8.390       8.009       7.590       7.238       6.996       6.789       6.554       6.291       6.077       5.900    
        5.698       5.437       4.944       4.171       3.316       3.669       4.116       4.446       4.700       4.858    
        4.906       4.898       4.827       4.679       4.471       4.178       3.755       3.395       3.079       2.564    
        2.002       1.550       1.261       1.036      0.8055      0.5884      0.4038      0.2804      0.1638       0.000    
  27    10.00       9.887       9.765       9.640       9.517       9.387       9.261       9.109       8.919       8.715    
        8.389       7.961       7.593       7.301       7.096       6.858       6.552       6.278       6.111       5.965    
        5.806       5.564       5.189       4.731       4.265       4.228       4.395       4.605       4.793       4.888    
        4.904       4.881       4.795       4.631       4.387       3.990       3.588       3.287       2.802       2.256    
        1.816       1.524       1.306       1.108      0.8809      0.6426      0.4389      0.3087      0.1948       0.000    
  28    10.00       9.895       9.795       9.682       9.562       9.424       9.285       9.139       8.974       8.736    
        8.356       7.984       7.663       7.375       7.158       6.925       6.675       6.409       6.170       6.018    
        5.891       5.718       5.475       5.139       4.851       4.679       4.708       4.841       4.906       4.934    
        4.921       4.876       4.769       4.557       4.231       3.815       3.463       3.035       2.524       2.132    
        1.816       1.567       1.353       1.147      0.9261      0.7016      0.4983      0.3518      0.2011       0.000    
  29    10.00       9.903       9.805       9.716       9.599       9.475       9.340       9.189       9.008       8.693    
        8.339       8.024       7.720       7.477       7.230       6.982       6.754       6.540       6.309       6.108    
        5.971       5.837       5.675       5.473       5.198       5.060       5.039       5.044       5.047       5.012    
        4.954       4.862       4.730       4.457       4.049       3.673       3.309       2.857       2.444       2.154    
        1.895       1.623       1.380       1.182      0.9829      0.7426      0.5270      0.3680      0.2041       0.000    
  30    10.00       9.916       9.835       9.758       9.653       9.531       9.409       9.238       8.997       8.710    
        8.353       8.012       7.764       7.522       7.288       7.064       6.879       6.679       6.454       6.240    
        6.070       5.956       5.818       5.680       5.528       5.405       5.361       5.265       5.205       5.109    
        4.984       4.823       4.628       4.335       4.004       3.644       3.251       2.823       2.506       2.240    
        1.931       1.657       1.446       1.221      0.9826      0.7694      0.5622      0.3911      0.2198       0.000    
  31    10.00       9.934       9.867       9.794       9.716       9.618       9.480       9.269       8.995       8.693    
        8.351       8.047       7.820       7.584       7.367       7.160       6.975       6.819       6.593       6.378    
        6.221       6.099       5.990       5.885       5.808       5.695       5.572       5.465       5.334       5.186    
        4.986       4.768       4.560       4.312       3.993       3.608       3.205       2.848       2.621       2.367    
        2.025       1.723       1.481       1.252       1.030      0.8105      0.5965      0.4120      0.2134       0.000    
  32    10.00       9.943       9.896       9.832       9.758       9.666       9.520       9.281       9.032       8.746    
        8.394       8.112       7.897       7.656       7.427       7.259       7.097       6.911       6.730       6.518    
        6.357       6.227       6.132       6.045       5.957       5.864       5.718       5.587       5.430       5.226    
        4.989       4.759       4.532       4.289       3.973       3.624       3.305       2.998       2.737       2.448    
        2.132       1.832       1.575       1.311       1.069      0.8829      0.6589      0.4050      0.1810       0.000    
  33    10.00       9.952       9.915       9.861       9.787       9.689       9.502       9.267       9.066       8.811    
        8.489       8.221       7.970       7.702       7.501       7.358       7.217       7.027       6.826       6.647    
        6.467       6.337       6.223       6.125       6.044       5.952       5.812       5.639       5.477       5.278    
        5.036       4.818       4.575       4.267       3.968       3.653       3.394       3.151       2.858       2.539    
        2.264       1.978       1.696       1.422       1.167      0.9580      0.7067      0.4081      0.1775       0.000    
  34    10.00       9.960       9.933       9.887       9.792       9.650       9.478       9.315       9.108       8.857    
        8.585       8.295       8.017       7.756       7.590       7.471       7.319       7.139       6.915       6.744    
        6.586       6.426       6.301       6.202       6.122       6.013       5.855       5.690       5.511       5.283    
        5.071       4.884       4.651       4.348       4.042       3.748       3.501       3.262       2.957       2.664    
        2.416       2.141       1.832       1.558       1.298       1.058      0.7577      0.4602      0.2413       0.000    
  35    10.00       9.967       9.933       9.870       9.754       9.617       9.494       9.354       9.189       8.919    
        8.623       8.338       8.060       7.842       7.691       7.566       7.406       7.218       7.004       6.801    
        6.655       6.507       6.381       6.285       6.197       6.085       5.909       5.711       5.502       5.268    
        5.104       4.917       4.674       4.451       4.191       3.877       3.599       3.396       3.102       2.786    
        2.546       2.263       1.953       1.684       1.413       1.149      0.8694      0.5763      0.2851       0.000    
  36    10.00       9.961       9.907       9.838       9.731       9.605       9.503       9.385       9.208       8.952    
        8.634       8.337       8.138       7.967       7.818       7.660       7.473       7.286       7.065       6.817    
        6.656       6.545       6.432       6.351       6.260       6.122       5.931       5.713       5.462       5.240    
        5.094       4.942       4.726       4.507       4.288       4.005       3.724       3.503       3.239       2.892    
        2.628       2.313       2.003       1.797       1.533       1.240      0.9594      0.6530      0.3195       0.000    
  37    10.00       9.940       9.884       9.816       9.712       9.602       9.488       9.377       9.217       8.924    
        8.597       8.367       8.247       8.085       7.901       7.746       7.525       7.297       7.031       6.784    
        6.665       6.572       6.464       6.379       6.276       6.113       5.919       5.646       5.412       5.256    
        5.120       4.951       4.736       4.562       4.336       4.068       3.846       3.632       3.335       2.955    
        2.607       2.311       2.095       1.880       1.617       1.338       1.057      0.7203      0.3956       0.000    
  38    10.00       9.933       9.861       9.791       9.701       9.598       9.479       9.359       9.179       8.906    
        8.661       8.477       8.324       8.179       7.985       7.744       7.503       7.249       6.957       6.782    
        6.684       6.568       6.465       6.391       6.279       6.090       5.811       5.551       5.419       5.296    
        5.151       4.970       4.773       4.598       4.376       4.130       3.947       3.729       3.350       2.931    
        2.629       2.380       2.165       1.944       1.710       1.428       1.148      0.8330      0.4117       0.000    
  39    10.00       9.915       9.846       9.783       9.698       9.582       9.458       9.336       9.168       8.945    
        8.754       8.613       8.442       8.249       7.984       7.692       7.422       7.132       6.920       6.799    
        6.665       6.532       6.453       6.384       6.279       6.034       5.744       5.574       5.450       5.322    
        5.160       4.987       4.796       4.619       4.450       4.246       4.005       3.741       3.367       2.976    
        2.657       2.400       2.231       2.045       1.782       1.502       1.218      0.8670      0.4063       0.000    
  40    10.00       9.907       9.841       9.778       9.691       9.574       9.454       9.333       9.184       9.000    
        8.842       8.720       8.521       8.232       7.908       7.616       7.332       7.080       6.920       6.780    
        6.627       6.509       6.437       6.356       6.217       6.002       5.796       5.622       5.479       5.348    
        5.189       5.001       4.818       4.670       4.520       4.313       4.035       3.759       3.378       2.958    
        2.659       2.455       2.269       2.110       1.833       1.527       1.267      0.8693      0.4047       0.000    
  41    10.00       9.916       9.841       9.766       9.673       9.581       9.481       9.370       9.223       9.056    
        8.906       8.764       8.518       8.182       7.849       7.575       7.294       7.050       6.896       6.747    
        6.594       6.489       6.413       6.316       6.171       6.004       5.863       5.692       5.514       5.359    
        5.205       5.033       4.858       4.727       4.568       4.361       4.083       3.701       3.264       2.940    
        2.722       2.525       2.332       2.111       1.824       1.530       1.308      0.9260      0.4199       0.000    
  42    10.00       9.916       9.832       9.766       9.698       9.613       9.507       9.382       9.258       9.130    
        8.946       8.710       8.427       8.108       7.800       7.549       7.275       7.034       6.870       6.703    
        6.560       6.466       6.385       6.295       6.160       6.041       5.920       5.728       5.528       5.387    
        5.259       5.071       4.882       4.755       4.608       4.387       4.046       3.594       3.193       2.952    
        2.788       2.612       2.366       2.072       1.796       1.566       1.335      0.9765      0.4818       0.000    
  43    10.00       9.910       9.839       9.783       9.729       9.648       9.544       9.426       9.290       9.101    
        8.870       8.629       8.363       8.032       7.754       7.522       7.276       7.034       6.826       6.671    
        6.540       6.446       6.375       6.301       6.184       6.058       5.936       5.738       5.563       5.459    
        5.302       5.099       4.916       4.785       4.612       4.327       3.932       3.504       3.211       3.026    
        2.852       2.649       2.347       2.046       1.801       1.580       1.381      0.9903      0.4526       0.000    
  44    10.00       9.909       9.848       9.798       9.734       9.674       9.589       9.434       9.237       9.022    
        8.829       8.584       8.266       7.989       7.765       7.500       7.230       6.979       6.772       6.635    
        6.538       6.455       6.381       6.303       6.202       6.074       5.909       5.745       5.626       5.500    
        5.360       5.182       4.973       4.773       4.563       4.243       3.828       3.476       3.249       3.070    
        2.894       2.654       2.362       2.101       1.840       1.602       1.359      0.8940      0.4112       0.000    
  45    10.00       9.920       9.862       9.797       9.736       9.684       9.548       9.367       9.169       8.984    
        8.825       8.501       8.170       7.968       7.730       7.438       7.146       6.913       6.744       6.633    
        6.558       6.479       6.397       6.305       6.193       6.068       5.928       5.800       5.695       5.565    
        5.403       5.219       5.003       4.751       4.499       4.154       3.765       3.487       3.315       3.130    
        2.895       2.621       2.370       2.132       1.901       1.664       1.269      0.7946      0.3999       0.000    
  46    10.00       9.935       9.874       9.799       9.728       9.627       9.480       9.344       9.178       8.980    
        8.719       8.412       8.146       7.891       7.638       7.355       7.085       6.911       6.772       6.664    
        6.588       6.512       6.408       6.293       6.184       6.078       5.967       5.849       5.744       5.629    
        5.483       5.288       5.043       4.744       4.384       4.026       3.738       3.541       3.361       3.169    
        2.891       2.598       2.349       2.161       1.940       1.631       1.182      0.7591      0.3742       0.000    
  47    10.00       9.947       9.890       9.815       9.695       9.562       9.437       9.330       9.178       8.918    
        8.605       8.324       8.093       7.880       7.611       7.303       7.064       6.900       6.788       6.698    
        6.616       6.527       6.419       6.297       6.191       6.106       6.014       5.898       5.776       5.663    
        5.536       5.373       5.049       4.630       4.278       4.020       3.778       3.609       3.449       3.183    
        2.845       2.535       2.309       2.179       1.934       1.556       1.118      0.7324      0.3701       0.000    
  48    10.00       9.953       9.894       9.783       9.660       9.545       9.419       9.311       9.158       8.865    
        8.524       8.288       8.099       7.838       7.525       7.247       7.067       6.901       6.791       6.721    
        6.637       6.531       6.415       6.303       6.214       6.147       6.064       5.936       5.795       5.674    
        5.540       5.345       5.006       4.659       4.345       4.060       3.844       3.670       3.467       3.129    
        2.765       2.526       2.346       2.115       1.794       1.459       1.083      0.7379      0.3907       0.000    
  49    10.00       9.951       9.862       9.755       9.662       9.539       9.416       9.302       9.109       8.800    
        8.495       8.269       8.033       7.770       7.533       7.274       7.024       6.870       6.802       6.737    
        6.657       6.535       6.400       6.303       6.235       6.185       6.091       5.942       5.794       5.684    
        5.540       5.282       4.984       4.738       4.474       4.161       3.882       3.667       3.428       3.065    
        2.772       2.562       2.314       1.981       1.696       1.394       1.065      0.7501      0.3820       0.000    
  50    10.00       9.938       9.840       9.742       9.668       9.553       9.417       9.272       9.064       8.819    
        8.510       8.208       7.962       7.752       7.562       7.272       6.987       6.870       6.811       6.747    
        6.671       6.534       6.389       6.301       6.247       6.201       6.096       5.936       5.795       5.682    
        5.525       5.254       5.024       4.814       4.529       4.217       3.934       3.650       3.305       2.984    
        2.828       2.607       2.245       1.910       1.671       1.383       1.098      0.7328      0.3010       0.000    

 HEAD WILL BE SAVED ON UNIT   51 AT END OF TIME STEP  86, STRESS PERIOD    2

 DRAWDOWN WILL BE SAVED ON UNIT   52 AT END OF TIME STEP  86, STRESS PERIOD    2
1
  VOLUMETRIC BUDGET FOR ENTIRE MODEL AT END OF TIME STEP 86 IN STRESS PERIOD   2
  ------------------------------------------------------------------------------

     CUMULATIVE VOLUMES      L**3       RATES FOR THIS TIME STEP      L**3/T
     ------------------                 ------------------------

           IN:                                      IN:
           ---                                      ---
             STORAGE =       39696.8906               STORAGE =         388.5952
       CONSTANT HEAD =       50085.4062         CONSTANT HEAD =         641.8462
               WELLS =           0.0000                 WELLS =           0.0000

            TOTAL IN =       89782.2969              TOTAL IN =        1030.4414

          OUT:                                     OUT:
          ----                                     ----
             STORAGE =       9.3745E-03               STORAGE =           0.0000
       CONSTANT HEAD =       46782.2695         CONSTANT HEAD =         530.4414
               WELLS =       43000.0000                 WELLS =         500.0000

           TOTAL OUT =       89782.2812             TOTAL OUT =        1030.4414

            IN - OUT =       1.5625E-02              IN - OUT =           0.0000

 PERCENT DISCREPANCY =           0.00     PERCENT DISCREPANCY =           0.00






          TIME SUMMARY AT END OF TIME STEP  86 IN STRESS PERIOD    2
                    SECONDS     MINUTES      HOURS       DAYS        YEARS
                    -----------------------------------------------------------
   TIME STEP LENGTH  86400.      1440.0      24.000      1.0000     2.73785E-03
 STRESS PERIOD TIME 7.43040E+06 1.23840E+05  2064.0      86.000     0.23546    
         TOTAL TIME 7.51680E+06 1.25280E+05  2088.0      87.000     0.23819    
1
 
 SOLVING FOR HEAD 

 OUTPUT CONTROL FOR STRESS PERIOD    2   TIME STEP  87
    SAVE HEAD FOR ALL LAYERS
    SAVE DRAWDOWN FOR ALL LAYERS
    SAVE BUDGET
    PRINT HEAD FOR ALL LAYERS
    PRINT BUDGET
 UBDSV1 SAVING "         STORAGE" ON UNIT  53 AT TIME STEP 87, STRESS PERIOD   2
 UBDSV2 SAVING "   CONSTANT HEAD" ON UNIT  53 AT TIME STEP 87, STRESS PERIOD   2
 UBDSV1 SAVING "FLOW RIGHT FACE " ON UNIT  53 AT TIME STEP 87, STRESS PERIOD   2
 UBDSV1 SAVING "FLOW FRONT FACE " ON UNIT  53 AT TIME STEP 87, STRESS PERIOD   2
1
              HEAD IN LAYER   1 AT END OF TIME STEP  87 IN STRESS PERIOD    2
  ---------------------------------------------------------------------------

            1           2           3           4           5           6           7           8           9          10
           11          12          13          14          15          16          17          18          19          20
           21          22          23          24          25          26          27          28          29          30
           31          32          33          34          35          36          37          38          39          40
           41          42          43          44          45          46          47          48          49          50
 ........................................................................................................................
   1    10.00       9.951       9.884       9.818       9.763       9.695       9.629       9.560       9.467       9.391    
        9.347       9.302       9.253       9.204       9.126       9.040       8.947       8.874       8.841       8.805    
        8.762       8.724       8.687       8.639       8.574       8.461       8.326       8.195       8.045       7.897    
        7.687       7.354       6.962       6.550       6.088       5.663       5.303       4.970       4.516       4.023    
        3.606       3.194       2.626       2.087       1.711       1.333       1.017      0.8126      0.5390       0.000    
   2    10.00       9.951       9.891       9.824       9.765       9.703       9.630       9.539       9.450       9.391    
        9.351       9.311       9.273       9.212       9.122       9.034       8.948       8.877       8.842       8.801    
        8.756       8.728       8.698       8.647       8.572       8.464       8.327       8.191       8.051       7.903    
        7.675       7.331       6.918       6.452       5.986       5.576       5.255       4.928       4.468       4.006    
        3.584       3.089       2.577       2.152       1.779       1.427       1.067      0.7717      0.4121       0.000    
   3    10.00       9.946       9.889       9.828       9.768       9.696       9.605       9.518       9.461       9.408    
        9.362       9.327       9.290       9.232       9.142       9.032       8.941       8.882       8.838       8.797    
        8.760       8.730       8.699       8.635       8.555       8.445       8.315       8.211       8.062       7.888    
        7.593       7.192       6.749       6.295       5.869       5.491       5.205       4.868       4.368       3.918    
        3.568       3.120       2.651       2.244       1.856       1.502       1.076      0.6620      0.2912       0.000    
   4    10.00       9.950       9.892       9.825       9.751       9.669       9.581       9.517       9.469       9.419    
        9.378       9.349       9.307       9.245       9.162       9.041       8.940       8.886       8.838       8.800    
        8.757       8.720       8.682       8.614       8.531       8.423       8.296       8.179       8.063       7.842    
        7.459       6.964       6.489       6.142       5.828       5.464       5.098       4.669       4.247       3.923    
        3.613       3.219       2.751       2.350       1.945       1.517       1.026      0.5876      0.2737       0.000    
   5    10.00       9.946       9.885       9.809       9.732       9.655       9.579       9.525       9.474       9.431    
        9.396       9.365       9.316       9.243       9.146       9.035       8.950       8.889       8.840       8.786    
        8.736       8.699       8.650       8.581       8.503       8.379       8.251       8.151       8.035       7.748    
        7.240       6.692       6.300       6.038       5.756       5.391       4.974       4.551       4.257       3.983    
        3.707       3.302       2.817       2.468       2.057       1.497      0.9332      0.5422      0.2728       0.000    
   6    10.00       9.934       9.860       9.801       9.729       9.649       9.585       9.535       9.484       9.444    
        9.411       9.373       9.309       9.224       9.141       9.049       8.956       8.881       8.818       8.755    
        8.712       8.671       8.626       8.552       8.436       8.317       8.223       8.114       7.915       7.500    
        6.930       6.432       6.133       5.939       5.712       5.310       4.859       4.531       4.316       4.080    
        3.815       3.451       2.972       2.539       2.031       1.432      0.8368      0.4768      0.2665       0.000    
   7    10.00       9.915       9.846       9.788       9.719       9.661       9.600       9.549       9.505       9.462    
        9.420       9.364       9.287       9.204       9.129       9.053       8.949       8.847       8.779       8.729    
        8.685       8.641       8.594       8.494       8.375       8.281       8.177       7.997       7.656       7.124    
        6.587       6.201       6.020       5.872       5.581       5.180       4.887       4.607       4.378       4.217    
        3.952       3.578       3.066       2.507       1.881       1.193      0.7013      0.4841      0.2452       0.000    
   8    10.00       9.909       9.845       9.783       9.721       9.670       9.617       9.568       9.526       9.485    
        9.422       9.341       9.260       9.188       9.116       9.022       8.898       8.803       8.751       8.703    
        8.651       8.614       8.535       8.427       8.321       8.208       8.009       7.722       7.251       6.791    
        6.397       6.099       5.964       5.783       5.451       5.146       4.905       4.701       4.522       4.335    
        4.061       3.602       3.012       2.374       1.661       1.077      0.7421      0.4748      0.2188       0.000    
   9    10.00       9.913       9.841       9.780       9.736       9.692       9.641       9.592       9.544       9.497    
        9.417       9.316       9.233       9.159       9.073       8.967       8.855       8.771       8.718       8.666    
        8.621       8.559       8.448       8.348       8.237       8.077       7.784       7.352       6.887       6.559    
        6.252       6.041       5.891       5.649       5.346       5.113       4.944       4.794       4.642       4.439    
        4.100       3.622       2.996       2.285       1.629       1.115      0.7571      0.4711      0.2336       0.000    
  10    10.00       9.912       9.838       9.788       9.748       9.707       9.662       9.619       9.562       9.486    
        9.389       9.287       9.206       9.124       9.033       8.910       8.798       8.731       8.684       8.634    
        8.586       8.484       8.365       8.253       8.097       7.853       7.411       6.945       6.586       6.342    
        6.163       5.994       5.789       5.542       5.290       5.120       4.999       4.876       4.706       4.470    
        4.106       3.584       2.916       2.281       1.763       1.277      0.8110      0.5004      0.2638       0.000    
  11    10.00       9.900       9.843       9.801       9.761       9.724       9.684       9.626       9.545       9.460    
        9.362       9.263       9.184       9.075       8.949       8.842       8.762       8.700       8.654       8.597    
        8.511       8.377       8.205       8.038       7.762       7.397       7.007       6.705       6.422       6.251    
        6.101       5.875       5.646       5.465       5.302       5.183       5.064       4.905       4.705       4.428    
        4.087       3.627       2.953       2.376       1.918       1.452      0.9355      0.4965      0.1994       0.000    
  12    10.00       9.909       9.852       9.808       9.774       9.736       9.691       9.612       9.515       9.427    
        9.334       9.235       9.128       8.996       8.893       8.801       8.717       8.666       8.605       8.517    
        8.346       8.117       7.875       7.624       7.282       7.005       6.807       6.495       6.266       6.137    
        5.980       5.767       5.592       5.443       5.342       5.234       5.093       4.913       4.674       4.386    
        4.051       3.602       2.986       2.473       2.059       1.557      0.9858      0.4706      0.1565       0.000    
  13    10.00       9.928       9.876       9.828       9.785       9.740       9.674       9.576       9.475       9.388    
        9.289       9.189       9.077       8.940       8.822       8.730       8.671       8.603       8.516       8.307    
        7.991       7.714       7.454       7.141       6.877       6.756       6.510       6.228       6.116       6.012    
        5.845       5.666       5.545       5.449       5.369       5.269       5.108       4.885       4.653       4.356    
        4.025       3.570       2.935       2.456       2.073       1.524      0.9185      0.4258      0.1230       0.000    
  14    10.00       9.947       9.900       9.849       9.797       9.728       9.630       9.527       9.436       9.337    
        9.239       9.147       9.012       8.859       8.751       8.678       8.579       8.474       8.264       7.894    
        7.559       7.315       6.973       6.720       6.605       6.470       6.216       6.057       5.942       5.841    
        5.704       5.601       5.533       5.461       5.379       5.279       5.097       4.854       4.605       4.304    
        3.950       3.401       2.803       2.417       1.947       1.420      0.9047      0.3886      0.1001       0.000    
  15    10.00       9.958       9.910       9.858       9.798       9.693       9.573       9.482       9.391       9.296    
        9.221       9.113       8.935       8.767       8.668       8.536       8.403       8.268       7.914       7.482    
        7.209       6.863       6.555       6.463       6.395       6.217       6.016       5.860       5.780       5.709    
        5.633       5.579       5.531       5.471       5.385       5.262       5.053       4.776       4.515       4.238    
        3.855       3.321       2.806       2.287       1.718       1.246      0.7773      0.3420      0.1027       0.000    
  16    10.00       9.969       9.922       9.860       9.765       9.635       9.531       9.458       9.376       9.278    
        9.177       9.020       8.813       8.653       8.508       8.352       8.262       7.987       7.474       7.079    
        6.807       6.470       6.360       6.307       6.177       5.952       5.791       5.722       5.704       5.660    
        5.607       5.565       5.526       5.462       5.358       5.204       4.951       4.702       4.498       4.202    
        3.767       3.192       2.599       2.019       1.535       1.068      0.6618      0.3244      0.1094       0.000    
  17    10.00       9.969       9.918       9.836       9.717       9.587       9.501       9.433       9.341       9.230    
        9.061       8.861       8.675       8.500       8.321       8.171       7.946       7.486       7.012       6.743    
        6.478       6.277       6.191       6.065       5.861       5.696       5.656       5.655       5.646       5.611    
        5.572       5.542       5.507       5.445       5.293       5.082       4.866       4.693       4.501       4.129    
        3.547       2.959       2.392       1.822       1.313      0.8639      0.5543      0.2898      0.1191       0.000    
  18    10.00       9.961       9.902       9.803       9.653       9.549       9.480       9.387       9.281       9.125    
        8.920       8.743       8.557       8.320       8.085       7.836       7.509       7.046       6.696       6.464    
        6.251       6.084       5.953       5.772       5.636       5.596       5.588       5.589       5.572       5.548    
        5.530       5.510       5.469       5.362       5.202       5.025       4.848       4.695       4.425       3.925    
        3.329       2.702       2.093       1.624       1.218      0.8096      0.4760      0.2397      0.1149       0.000    
  19    10.00       9.952       9.886       9.742       9.592       9.531       9.454       9.339       9.207       9.039    
        8.853       8.686       8.414       8.054       7.776       7.522       7.129       6.713       6.481       6.304    
        6.086       5.883       5.739       5.602       5.537       5.525       5.522       5.506       5.480       5.477    
        5.472       5.457       5.396       5.294       5.163       4.993       4.836       4.613       4.148       3.627    
        3.145       2.495       1.915       1.543       1.139      0.7305      0.4299      0.2441      0.1251       0.000    
  20    10.00       9.941       9.830       9.681       9.573       9.506       9.422       9.298       9.152       8.999    
        8.807       8.552       8.146       7.790       7.545       7.233       6.846       6.622       6.411       6.166    
        5.926       5.746       5.597       5.501       5.454       5.431       5.402       5.397       5.384       5.394    
        5.400       5.387       5.324       5.232       5.099       4.955       4.757       4.350       3.846       3.430    
        2.904       2.304       1.870       1.509       1.102      0.6488      0.3759      0.2542      0.1310       0.000    
  21    10.00       9.902       9.783       9.658       9.552       9.481       9.390       9.245       9.099       8.954    
        8.696       8.306       7.895       7.629       7.356       7.030       6.746       6.534       6.281       6.023    
        5.795       5.619       5.489       5.389       5.322       5.272       5.255       5.264       5.268       5.286    
        5.308       5.285       5.221       5.138       5.006       4.849       4.538       4.110       3.714       3.209    
        2.710       2.235       1.868       1.503      0.9295      0.5262      0.3807      0.2873      0.1378       0.000    
  22    10.00       9.876       9.733       9.622       9.537       9.452       9.323       9.188       9.059       8.858    
        8.527       8.088       7.764       7.525       7.220       6.887       6.616       6.393       6.164       5.921    
        5.695       5.509       5.335       5.180       5.093       5.072       5.089       5.103       5.141       5.165    
        5.190       5.163       5.113       5.026       4.898       4.742       4.427       4.019       3.500       3.010    
        2.649       2.270       1.828       1.215      0.7269      0.5252      0.3994      0.2661      9.8469E-02   0.000    
  23    10.00       9.839       9.700       9.612       9.522       9.395       9.255       9.154       8.991       8.740    
        8.354       7.981       7.748       7.450       7.054       6.725       6.513       6.333       6.119       5.858    
        5.620       5.403       5.154       4.862       4.649       4.692       4.828       4.916       4.996       5.050    
        5.073       5.063       5.019       4.938       4.819       4.645       4.328       3.824       3.303       2.958    
        2.625       2.148       1.511      0.9825      0.7163      0.5362      0.3838      0.2266      9.0223E-02   0.000    
  24    10.00       9.814       9.714       9.608       9.480       9.347       9.240       9.128       8.971       8.640    
        8.280       8.003       7.740       7.342       6.910       6.674       6.495       6.318       6.075       5.830    
        5.618       5.343       4.944       4.392       3.720       3.991       4.397       4.680       4.848       4.934    
        4.979       4.977       4.946       4.859       4.724       4.502       4.100       3.622       3.233       2.874    
        2.465       1.930       1.359      0.9544      0.7187      0.5231      0.3507      0.2458      0.1207       0.000    
  25    10.00       9.835       9.732       9.599       9.466       9.344       9.237       9.135       8.900       8.579    
        8.302       8.022       7.678       7.242       6.922       6.710       6.507       6.294       6.073       5.861    
        5.618       5.354       4.785       3.736       1.875       3.254       4.000       4.444       4.719       4.863    
        4.919       4.922       4.883       4.761       4.575       4.270       3.889       3.513       3.179       2.759    
        2.265       1.754       1.271      0.9475      0.7458      0.5442      0.3699      0.2577      0.1604       0.000    
  26    10.00       9.857       9.758       9.618       9.475       9.364       9.251       9.099       8.868       8.645    
        8.384       8.002       7.582       7.229       6.987       6.779       6.544       6.281       6.067       5.890    
        5.688       5.426       4.933       4.160       3.304       3.657       4.104       4.434       4.688       4.846    
        4.894       4.887       4.815       4.668       4.461       4.170       3.748       3.389       3.074       2.561    
        1.999       1.549       1.260       1.035      0.8048      0.5879      0.4035      0.2801      0.1637       0.000    
  27    10.00       9.887       9.764       9.638       9.515       9.384       9.258       9.106       8.915       8.711    
        8.383       7.954       7.585       7.292       7.087       6.849       6.542       6.268       6.100       5.955    
        5.796       5.553       5.178       4.719       4.253       4.216       4.383       4.592       4.781       4.876    
        4.892       4.869       4.784       4.621       4.378       3.982       3.582       3.282       2.798       2.254    
        1.814       1.522       1.304       1.107      0.8802      0.6421      0.4386      0.3085      0.1947       0.000    
  28    10.00       9.895       9.794       9.681       9.560       9.422       9.282       9.135       8.970       8.731    
        8.350       7.977       7.655       7.367       7.149       6.916       6.665       6.399       6.160       6.008    
        5.881       5.707       5.464       5.128       4.839       4.667       4.696       4.829       4.894       4.923    
        4.909       4.865       4.758       4.547       4.223       3.809       3.457       3.030       2.521       2.130    
        1.814       1.565       1.352       1.147      0.9254      0.7010      0.4979      0.3515      0.2010       0.000    
  29    10.00       9.902       9.804       9.715       9.597       9.473       9.337       9.186       9.005       8.688    
        8.333       8.017       7.712       7.469       7.221       6.973       6.745       6.530       6.299       6.098    
        5.960       5.827       5.664       5.462       5.187       5.048       5.028       5.032       5.035       5.000    
        4.943       4.851       4.720       4.448       4.042       3.667       3.304       2.853       2.442       2.152    
        1.893       1.621       1.379       1.182      0.9822      0.7421      0.5266      0.3677      0.2039       0.000    
  30    10.00       9.916       9.835       9.757       9.652       9.529       9.407       9.235       8.993       8.705    
        8.347       8.006       7.757       7.514       7.280       7.055       6.870       6.670       6.444       6.230    
        6.060       5.946       5.807       5.669       5.517       5.394       5.350       5.254       5.193       5.098    
        4.974       4.813       4.619       4.327       3.998       3.639       3.247       2.819       2.504       2.237    
        1.930       1.656       1.445       1.220      0.9818      0.7688      0.5619      0.3909      0.2197       0.000    
  31    10.00       9.933       9.867       9.793       9.715       9.616       9.478       9.267       8.992       8.688    
        8.346       8.040       7.813       7.576       7.359       7.152       6.967       6.810       6.584       6.368    
        6.211       6.089       5.980       5.874       5.798       5.685       5.561       5.455       5.323       5.176    
        4.977       4.760       4.553       4.306       3.987       3.604       3.201       2.845       2.618       2.365    
        2.023       1.721       1.479       1.251       1.029      0.8100      0.5961      0.4117      0.2133       0.000    
  32    10.00       9.943       9.895       9.832       9.758       9.665       9.519       9.278       9.029       8.742    
        8.389       8.106       7.891       7.648       7.419       7.251       7.088       6.903       6.721       6.508    
        6.347       6.217       6.122       6.036       5.947       5.854       5.708       5.577       5.420       5.217    
        4.981       4.752       4.525       4.283       3.968       3.619       3.302       2.995       2.735       2.446    
        2.130       1.830       1.574       1.310       1.069      0.8823      0.6585      0.4048      0.1809       0.000    
  33    10.00       9.952       9.915       9.861       9.786       9.688       9.500       9.264       9.063       8.807    
        8.484       8.216       7.964       7.695       7.494       7.350       7.209       7.019       6.818       6.638    
        6.458       6.328       6.213       6.116       6.035       5.943       5.803       5.630       5.468       5.270    
        5.029       4.811       4.569       4.262       3.963       3.650       3.391       3.148       2.856       2.537    
        2.262       1.977       1.695       1.422       1.166      0.9575      0.7063      0.4079      0.1774       0.000    
  34    10.00       9.960       9.932       9.887       9.791       9.649       9.477       9.313       9.106       8.854    
        8.580       8.290       8.011       7.750       7.583       7.464       7.312       7.131       6.907       6.735    
        6.578       6.417       6.293       6.193       6.113       6.004       5.847       5.682       5.503       5.276    
        5.065       4.878       4.645       4.344       4.038       3.744       3.498       3.260       2.955       2.662    
        2.415       2.140       1.831       1.557       1.298       1.058      0.7574      0.4600      0.2412       0.000    
  35    10.00       9.967       9.933       9.869       9.753       9.616       9.493       9.352       9.186       8.916    
        8.619       8.333       8.055       7.836       7.684       7.559       7.399       7.210       6.996       6.793    
        6.647       6.499       6.373       6.277       6.188       6.077       5.901       5.703       5.496       5.262    
        5.099       4.912       4.670       4.448       4.188       3.875       3.597       3.394       3.101       2.785    
        2.544       2.262       1.952       1.683       1.412       1.149      0.8691      0.5761      0.2850       0.000    
  36    10.00       9.960       9.907       9.838       9.730       9.603       9.501       9.383       9.205       8.949    
        8.630       8.332       8.133       7.962       7.812       7.654       7.467       7.279       7.058       6.810    
        6.649       6.538       6.425       6.344       6.253       6.115       5.924       5.706       5.456       5.236    
        5.090       4.938       4.722       4.504       4.285       4.003       3.722       3.501       3.237       2.891    
        2.627       2.312       2.002       1.796       1.533       1.240      0.9591      0.6528      0.3194       0.000    
  37    10.00       9.940       9.884       9.815       9.711       9.601       9.487       9.375       9.215       8.921    
        8.593       8.363       8.243       8.080       7.895       7.740       7.519       7.291       7.025       6.778    
        6.659       6.566       6.457       6.373       6.269       6.107       5.913       5.642       5.408       5.252    
        5.116       4.947       4.734       4.559       4.333       4.066       3.844       3.630       3.334       2.953    
        2.606       2.310       2.094       1.880       1.616       1.338       1.057      0.7201      0.3954       0.000    
  38    10.00       9.933       9.861       9.791       9.700       9.597       9.478       9.357       9.177       8.904    
        8.658       8.473       8.319       8.174       7.980       7.739       7.497       7.243       6.951       6.776    
        6.679       6.562       6.460       6.385       6.274       6.085       5.806       5.548       5.415       5.292    
        5.147       4.967       4.770       4.595       4.374       4.128       3.945       3.727       3.349       2.929    
        2.628       2.379       2.165       1.943       1.710       1.427       1.147      0.8328      0.4116       0.000    
  39    10.00       9.915       9.846       9.783       9.697       9.581       9.457       9.334       9.166       8.943    
        8.751       8.609       8.439       8.244       7.979       7.687       7.417       7.127       6.915       6.794    
        6.660       6.528       6.449       6.379       6.274       6.030       5.740       5.571       5.446       5.319    
        5.157       4.984       4.793       4.617       4.448       4.244       4.004       3.740       3.366       2.975    
        2.656       2.399       2.230       2.045       1.782       1.502       1.218      0.8668      0.4062       0.000    
  40    10.00       9.907       9.841       9.778       9.690       9.573       9.452       9.332       9.182       8.998    
        8.840       8.717       8.517       8.228       7.904       7.612       7.328       7.075       6.915       6.776    
        6.623       6.505       6.433       6.352       6.213       5.998       5.793       5.619       5.476       5.345    
        5.186       4.998       4.816       4.667       4.518       4.311       4.034       3.757       3.377       2.957    
        2.658       2.455       2.268       2.109       1.833       1.526       1.267      0.8690      0.4046       0.000    
  41    10.00       9.916       9.840       9.765       9.672       9.580       9.480       9.368       9.221       9.054    
        8.904       8.761       8.515       8.179       7.845       7.571       7.291       7.046       6.892       6.743    
        6.590       6.485       6.409       6.313       6.167       6.001       5.860       5.689       5.511       5.356    
        5.203       5.031       4.855       4.725       4.566       4.359       4.082       3.699       3.262       2.939    
        2.721       2.525       2.332       2.111       1.823       1.530       1.307      0.9257      0.4198       0.000    
  42    10.00       9.916       9.831       9.766       9.698       9.613       9.506       9.381       9.256       9.129    
        8.944       8.708       8.424       8.106       7.797       7.546       7.272       7.031       6.867       6.699    
        6.556       6.463       6.382       6.292       6.157       6.038       5.917       5.725       5.526       5.385    
        5.257       5.069       4.880       4.753       4.606       4.386       4.044       3.593       3.192       2.951    
        2.787       2.611       2.365       2.071       1.795       1.566       1.335      0.9762      0.4817       0.000    
  43    10.00       9.910       9.839       9.782       9.729       9.648       9.544       9.425       9.289       9.099    
        8.868       8.627       8.361       8.030       7.751       7.519       7.273       7.031       6.823       6.668    
        6.537       6.443       6.372       6.298       6.181       6.055       5.933       5.736       5.561       5.456    
        5.300       5.097       4.914       4.783       4.610       4.325       3.930       3.503       3.210       3.025    
        2.851       2.648       2.347       2.045       1.801       1.580       1.381      0.9900      0.4524       0.000    
  44    10.00       9.909       9.848       9.798       9.734       9.673       9.588       9.433       9.236       9.021    
        8.828       8.583       8.264       7.987       7.762       7.497       7.228       6.976       6.770       6.632    
        6.535       6.453       6.378       6.301       6.200       6.071       5.907       5.742       5.623       5.498    
        5.358       5.180       4.971       4.771       4.561       4.241       3.827       3.475       3.248       3.069    
        2.893       2.653       2.362       2.101       1.839       1.602       1.358      0.8938      0.4111       0.000    
  45    10.00       9.920       9.862       9.797       9.735       9.683       9.547       9.366       9.168       8.983    
        8.824       8.500       8.168       7.966       7.728       7.435       7.144       6.910       6.742       6.630    
        6.555       6.476       6.394       6.302       6.190       6.065       5.925       5.797       5.693       5.563    
        5.400       5.216       5.001       4.749       4.497       4.153       3.764       3.486       3.314       3.129    
        2.894       2.620       2.370       2.132       1.900       1.664       1.269      0.7944      0.3998       0.000    
  46    10.00       9.935       9.874       9.798       9.727       9.626       9.480       9.343       9.177       8.979    
        8.717       8.410       8.144       7.889       7.636       7.353       7.082       6.909       6.769       6.661    
        6.585       6.509       6.406       6.290       6.182       6.075       5.965       5.847       5.741       5.627    
        5.480       5.286       5.041       4.742       4.383       4.025       3.737       3.540       3.360       3.168    
        2.890       2.598       2.348       2.160       1.939       1.631       1.181      0.7589      0.3741       0.000    
  47    10.00       9.947       9.890       9.815       9.694       9.561       9.436       9.329       9.177       8.917    
        8.604       8.322       8.092       7.878       7.609       7.301       7.062       6.897       6.786       6.696    
        6.613       6.525       6.417       6.295       6.188       6.104       6.012       5.895       5.774       5.661    
        5.534       5.371       5.047       4.628       4.276       4.019       3.777       3.607       3.448       3.182    
        2.844       2.534       2.308       2.178       1.933       1.556       1.117      0.7322      0.3700       0.000    
  48    10.00       9.953       9.894       9.783       9.659       9.544       9.418       9.310       9.157       8.864    
        8.523       8.287       8.098       7.837       7.523       7.245       7.065       6.899       6.789       6.718    
        6.635       6.529       6.412       6.300       6.212       6.145       6.062       5.933       5.793       5.671    
        5.538       5.342       5.005       4.657       4.343       4.058       3.843       3.669       3.466       3.128    
        2.764       2.525       2.345       2.115       1.793       1.459       1.082      0.7377      0.3906       0.000    
  49    10.00       9.951       9.861       9.754       9.661       9.538       9.416       9.301       9.109       8.799    
        8.493       8.268       8.032       7.768       7.531       7.272       7.021       6.867       6.800       6.734    
        6.655       6.533       6.397       6.300       6.233       6.183       6.088       5.940       5.792       5.682    
        5.537       5.280       4.982       4.736       4.473       4.159       3.880       3.666       3.427       3.064    
        2.771       2.561       2.313       1.980       1.696       1.394       1.065      0.7499      0.3819       0.000    
  50    10.00       9.938       9.840       9.742       9.667       9.552       9.416       9.271       9.063       8.818    
        8.509       8.206       7.961       7.750       7.560       7.270       6.984       6.868       6.808       6.745    
        6.669       6.532       6.387       6.298       6.245       6.199       6.093       5.934       5.793       5.680    
        5.522       5.252       5.023       4.812       4.527       4.216       3.933       3.649       3.304       2.983    
        2.827       2.607       2.245       1.910       1.671       1.383       1.097      0.7326      0.3009       0.000    

 HEAD WILL BE SAVED ON UNIT   51 AT END OF TIME STEP  87, STRESS PERIOD    2

 DRAWDOWN WILL BE SAVED ON UNIT   52 AT END OF TIME STEP  87, STRESS PERIOD    2
1
  VOLUMETRIC BUDGET FOR ENTIRE MODEL AT END OF TIME STEP 87 IN STRESS PERIOD   2
  ------------------------------------------------------------------------------

     CUMULATIVE VOLUMES      L**3       RATES FOR THIS TIME STEP      L**3/T
     ------------------                 ------------------------

           IN:                                      IN:
           ---                                      ---
             STORAGE =       40083.4883               STORAGE =         386.5958
       CONSTANT HEAD =       50728.9219         CONSTANT HEAD =         643.5175
               WELLS =           0.0000                 WELLS =           0.0000

            TOTAL IN =       90812.4062              TOTAL IN =        1030.1133

          OUT:                                     OUT:
          ----                                     ----
             STORAGE =       9.3745E-03               STORAGE =           0.0000
       CONSTANT HEAD =       47312.3828         CONSTANT HEAD =         530.1132
               WELLS =       43500.0000                 WELLS =         500.0000

           TOTAL OUT =       90812.3906             TOTAL OUT =        1030.1133

            IN - OUT =       1.5625E-02              IN - OUT =           0.0000

 PERCENT DISCREPANCY =           0.00     PERCENT DISCREPANCY =           0.00






          TIME SUMMARY AT END OF TIME STEP  87 IN STRESS PERIOD    2
                    SECONDS     MINUTES      HOURS       DAYS        YEARS
                    -----------------------------------------------------------
   TIME STEP LENGTH  86400.      1440.0      24.000      1.0000     2.73785E-03
 STRESS PERIOD TIME 7.51680E+06 1.25280E+05  2088.0      87.000     0.23819    
         TOTAL TIME 7.60320E+06 1.26720E+05  2112.0      88.000     0.24093    
1
 
 SOLVING FOR HEAD 

 OUTPUT CONTROL FOR STRESS PERIOD    2   TIME STEP  88
    SAVE HEAD FOR ALL LAYERS
    SAVE DRAWDOWN FOR ALL LAYERS
    SAVE BUDGET
    PRINT HEAD FOR ALL LAYERS
    PRINT BUDGET
 UBDSV1 SAVING "         STORAGE" ON UNIT  53 AT TIME STEP 88, STRESS PERIOD   2
 UBDSV2 SAVING "   CONSTANT HEAD" ON UNIT  53 AT TIME STEP 88, STRESS PERIOD   2
 UBDSV1 SAVING "FLOW RIGHT FACE " ON UNIT  53 AT TIME STEP 88, STRESS PERIOD   2
 UBDSV1 SAVING "FLOW FRONT FACE " ON UNIT  53 AT TIME STEP 88, STRESS PERIOD   2
1
              HEAD IN LAYER   1 AT END OF TIME STEP  88 IN STRESS PERIOD    2
  ---------------------------------------------------------------------------

            1           2           3           4           5           6           7           8           9          10
           11          12          13          14          15          16          17          18          19          20
           21          22          23          24          25          26          27          28          29          30
           31          32          33          34          35          36          37          38          39          40
           41          42          43          44          45          46          47          48          49          50
 ........................................................................................................................
   1    10.00       9.951       9.884       9.818       9.762       9.695       9.628       9.559       9.466       9.390    
        9.345       9.300       9.251       9.202       9.123       9.037       8.944       8.871       8.838       8.802    
        8.758       8.721       8.683       8.636       8.571       8.458       8.322       8.191       8.041       7.893    
        7.683       7.350       6.958       6.545       6.084       5.658       5.299       4.966       4.512       4.020    
        3.603       3.191       2.624       2.086       1.709       1.332       1.016      0.8119      0.5385       0.000    
   2    10.00       9.951       9.891       9.824       9.765       9.702       9.629       9.537       9.448       9.390    
        9.349       9.309       9.271       9.210       9.120       9.031       8.945       8.874       8.839       8.798    
        8.753       8.725       8.694       8.644       8.569       8.461       8.324       8.187       8.047       7.899    
        7.671       7.327       6.914       6.447       5.982       5.572       5.251       4.925       4.464       4.002    
        3.581       3.087       2.575       2.150       1.777       1.426       1.066      0.7710      0.4117       0.000    
   3    10.00       9.946       9.888       9.827       9.767       9.695       9.604       9.517       9.460       9.407    
        9.360       9.325       9.288       9.230       9.140       9.029       8.938       8.879       8.835       8.794    
        8.757       8.726       8.696       8.632       8.551       8.441       8.311       8.207       8.058       7.884    
        7.589       7.187       6.744       6.291       5.865       5.486       5.201       4.864       4.364       3.915    
        3.565       3.117       2.648       2.241       1.855       1.501       1.075      0.6614      0.2909       0.000    
   4    10.00       9.950       9.892       9.825       9.751       9.668       9.580       9.516       9.467       9.417    
        9.377       9.347       9.305       9.243       9.160       9.038       8.937       8.883       8.835       8.796    
        8.754       8.717       8.678       8.610       8.527       8.420       8.292       8.175       8.059       7.838    
        7.454       6.960       6.485       6.137       5.823       5.460       5.094       4.665       4.243       3.919    
        3.610       3.216       2.748       2.348       1.944       1.516       1.025      0.5871      0.2735       0.000    
   5    10.00       9.946       9.884       9.808       9.731       9.654       9.578       9.523       9.473       9.429    
        9.394       9.363       9.314       9.241       9.144       9.033       8.947       8.886       8.837       8.783    
        8.733       8.695       8.646       8.577       8.499       8.375       8.247       8.147       8.031       7.744    
        7.236       6.687       6.295       6.033       5.751       5.386       4.969       4.547       4.252       3.979    
        3.703       3.298       2.814       2.466       2.055       1.496      0.9324      0.5417      0.2725       0.000    
   6    10.00       9.934       9.860       9.800       9.728       9.648       9.583       9.534       9.482       9.442    
        9.410       9.371       9.308       9.222       9.139       9.047       8.954       8.878       8.815       8.752    
        8.708       8.667       8.622       8.548       8.432       8.313       8.219       8.109       7.911       7.495    
        6.925       6.426       6.127       5.934       5.706       5.305       4.854       4.526       4.311       4.075    
        3.811       3.447       2.969       2.537       2.029       1.430      0.8360      0.4764      0.2662       0.000    
   7    10.00       9.914       9.845       9.787       9.718       9.660       9.599       9.547       9.503       9.461    
        9.418       9.362       9.285       9.202       9.127       9.051       8.946       8.844       8.776       8.725    
        8.682       8.638       8.590       8.491       8.371       8.277       8.172       7.992       7.651       7.118    
        6.581       6.195       6.013       5.866       5.575       5.174       4.881       4.602       4.373       4.213    
        3.947       3.574       3.063       2.505       1.879       1.192      0.7007      0.4836      0.2450       0.000    
   8    10.00       9.909       9.845       9.783       9.720       9.669       9.616       9.567       9.524       9.483    
        9.421       9.339       9.258       9.185       9.114       9.019       8.895       8.799       8.747       8.699    
        8.648       8.610       8.531       8.423       8.316       8.204       8.004       7.717       7.245       6.785    
        6.390       6.092       5.958       5.777       5.445       5.140       4.899       4.696       4.517       4.330    
        4.056       3.598       3.009       2.372       1.659       1.076      0.7414      0.4744      0.2186       0.000    
   9    10.00       9.913       9.841       9.779       9.735       9.691       9.640       9.591       9.543       9.495    
        9.415       9.314       9.231       9.156       9.070       8.964       8.852       8.767       8.714       8.663    
        8.617       8.555       8.444       8.343       8.232       8.072       7.779       7.346       6.880       6.553    
        6.245       6.034       5.884       5.642       5.339       5.107       4.938       4.788       4.637       4.434    
        4.095       3.618       2.993       2.283       1.627       1.114      0.7563      0.4706      0.2334       0.000    
  10    10.00       9.911       9.838       9.787       9.748       9.706       9.661       9.618       9.560       9.485    
        9.387       9.285       9.203       9.122       9.031       8.907       8.795       8.727       8.681       8.630    
        8.582       8.480       8.360       8.248       8.092       7.847       7.404       6.939       6.579       6.335    
        6.156       5.987       5.782       5.535       5.283       5.113       4.993       4.870       4.701       4.465    
        4.101       3.580       2.912       2.279       1.761       1.276      0.8102      0.4999      0.2636       0.000    
  11    10.00       9.900       9.843       9.800       9.760       9.723       9.683       9.625       9.544       9.458    
        9.360       9.260       9.181       9.072       8.946       8.839       8.759       8.696       8.650       8.593    
        8.506       8.373       8.200       8.033       7.756       7.391       7.000       6.698       6.414       6.244    
        6.094       5.867       5.639       5.458       5.295       5.176       5.058       4.899       4.699       4.422    
        4.082       3.623       2.950       2.373       1.916       1.451      0.9346      0.4960      0.1992       0.000    
  12    10.00       9.908       9.852       9.807       9.774       9.735       9.690       9.611       9.513       9.425    
        9.332       9.232       9.126       8.993       8.890       8.797       8.713       8.662       8.601       8.513    
        8.341       8.112       7.869       7.618       7.276       6.998       6.799       6.487       6.258       6.129    
        5.972       5.759       5.584       5.435       5.334       5.227       5.086       4.907       4.668       4.380    
        4.046       3.598       2.982       2.470       2.057       1.556      0.9848      0.4702      0.1564       0.000    
  13    10.00       9.928       9.876       9.828       9.784       9.739       9.672       9.574       9.473       9.386    
        9.287       9.186       9.074       8.936       8.818       8.726       8.667       8.599       8.512       8.302    
        7.985       7.708       7.447       7.134       6.869       6.748       6.501       6.219       6.107       6.003    
        5.837       5.658       5.536       5.441       5.361       5.262       5.101       4.879       4.646       4.350    
        4.019       3.565       2.931       2.453       2.070       1.523      0.9176      0.4254      0.1229       0.000    
  14    10.00       9.947       9.900       9.848       9.796       9.727       9.629       9.525       9.434       9.335    
        9.236       9.144       9.009       8.855       8.747       8.674       8.575       8.469       8.259       7.888    
        7.552       7.307       6.965       6.712       6.596       6.461       6.207       6.048       5.933       5.832    
        5.695       5.592       5.525       5.453       5.371       5.271       5.090       4.847       4.599       4.298    
        3.945       3.396       2.800       2.414       1.945       1.419      0.9038      0.3882      9.9962E-02   0.000    
  15    10.00       9.958       9.910       9.858       9.797       9.692       9.571       9.480       9.389       9.293    
        9.219       9.110       8.931       8.763       8.664       8.532       8.398       8.263       7.908       7.475    
        7.201       6.854       6.546       6.454       6.386       6.208       6.006       5.850       5.770       5.700    
        5.623       5.570       5.522       5.462       5.377       5.254       5.045       4.769       4.508       4.232    
        3.850       3.317       2.803       2.284       1.716       1.245      0.7765      0.3417      0.1026       0.000    
  16    10.00       9.969       9.922       9.859       9.764       9.634       9.530       9.456       9.374       9.275    
        9.174       9.017       8.809       8.649       8.503       8.347       8.256       7.980       7.467       7.071    
        6.798       6.461       6.350       6.297       6.167       5.942       5.781       5.712       5.694       5.650    
        5.597       5.556       5.517       5.453       5.350       5.196       4.943       4.694       4.491       4.196    
        3.762       3.188       2.596       2.017       1.534       1.067      0.6611      0.3240      0.1093       0.000    
  17    10.00       9.968       9.918       9.836       9.716       9.586       9.499       9.431       9.338       9.227    
        9.057       8.857       8.671       8.495       8.315       8.165       7.940       7.478       7.004       6.734    
        6.469       6.267       6.181       6.055       5.851       5.685       5.646       5.644       5.636       5.601    
        5.562       5.533       5.498       5.436       5.284       5.073       4.858       4.686       4.494       4.123    
        3.542       2.955       2.388       1.820       1.312      0.8629      0.5537      0.2895      0.1190       0.000    
  18    10.00       9.961       9.902       9.802       9.652       9.547       9.478       9.385       9.278       9.122    
        8.916       8.738       8.552       8.314       8.078       7.829       7.501       7.037       6.687       6.454    
        6.241       6.074       5.943       5.762       5.625       5.585       5.577       5.578       5.562       5.538    
        5.520       5.500       5.460       5.352       5.193       5.016       4.840       4.687       4.417       3.919    
        3.324       2.698       2.090       1.622       1.217      0.8087      0.4755      0.2394      0.1148       0.000    
  19    10.00       9.952       9.886       9.740       9.591       9.529       9.452       9.336       9.204       9.035    
        8.848       8.681       8.409       8.048       7.769       7.514       7.120       6.703       6.471       6.294    
        6.076       5.873       5.728       5.591       5.526       5.514       5.512       5.495       5.470       5.467    
        5.461       5.446       5.386       5.284       5.153       4.984       4.827       4.606       4.141       3.621    
        3.140       2.492       1.913       1.541       1.138      0.7297      0.4294      0.2438      0.1249       0.000    
  20    10.00       9.941       9.830       9.680       9.571       9.504       9.420       9.295       9.148       8.995    
        8.802       8.546       8.139       7.783       7.537       7.225       6.837       6.612       6.401       6.156    
        5.916       5.736       5.586       5.491       5.443       5.420       5.392       5.386       5.373       5.384    
        5.389       5.377       5.313       5.222       5.089       4.945       4.748       4.342       3.840       3.425    
        2.900       2.301       1.867       1.507       1.101      0.6480      0.3755      0.2540      0.1309       0.000    
  21    10.00       9.901       9.782       9.657       9.550       9.479       9.387       9.241       9.095       8.950    
        8.691       8.300       7.888       7.622       7.348       7.021       6.736       6.524       6.271       6.013    
        5.785       5.609       5.478       5.378       5.311       5.261       5.244       5.253       5.257       5.275    
        5.297       5.274       5.211       5.128       4.996       4.839       4.530       4.103       3.707       3.204    
        2.706       2.232       1.866       1.501      0.9284      0.5256      0.3803      0.2870      0.1377       0.000    
  22    10.00       9.875       9.732       9.620       9.535       9.449       9.320       9.185       9.055       8.854    
        8.522       8.081       7.757       7.517       7.211       6.878       6.607       6.383       6.154       5.910    
        5.685       5.498       5.324       5.169       5.082       5.061       5.078       5.092       5.130       5.154    
        5.178       5.152       5.102       5.016       4.888       4.732       4.418       4.012       3.494       3.006    
        2.645       2.267       1.826       1.214      0.7261      0.5246      0.3990      0.2658      9.8373E-02   0.000    
  23    10.00       9.838       9.699       9.610       9.520       9.392       9.251       9.150       8.987       8.735    
        8.348       7.974       7.740       7.441       7.045       6.716       6.503       6.323       6.109       5.847    
        5.610       5.392       5.143       4.851       4.638       4.681       4.816       4.905       4.985       5.039    
        5.062       5.051       5.008       4.928       4.809       4.635       4.320       3.817       3.298       2.954    
        2.622       2.145       1.509      0.9815      0.7156      0.5356      0.3834      0.2264      9.0140E-02   0.000    
  24    10.00       9.813       9.712       9.606       9.478       9.344       9.237       9.124       8.967       8.634    
        8.273       7.996       7.732       7.333       6.900       6.664       6.486       6.308       6.065       5.819    
        5.608       5.332       4.933       4.381       3.708       3.979       4.386       4.668       4.836       4.923    
        4.968       4.965       4.935       4.848       4.714       4.493       4.092       3.616       3.228       2.870    
        2.462       1.928       1.358      0.9534      0.7180      0.5226      0.3504      0.2456      0.1206       0.000    
  25    10.00       9.835       9.731       9.598       9.464       9.341       9.234       9.131       8.896       8.574    
        8.296       8.016       7.670       7.234       6.912       6.700       6.498       6.284       6.062       5.851    
        5.607       5.343       4.774       3.725       1.863       3.243       3.988       4.432       4.707       4.852    
        4.907       4.911       4.872       4.751       4.565       4.262       3.881       3.507       3.174       2.755    
        2.262       1.752       1.270      0.9466      0.7452      0.5437      0.3695      0.2575      0.1603       0.000    
  26    10.00       9.857       9.757       9.616       9.472       9.362       9.248       9.096       8.864       8.640    
        8.378       7.995       7.574       7.221       6.978       6.770       6.534       6.271       6.056       5.879    
        5.677       5.415       4.922       4.148       3.293       3.645       4.092       4.422       4.676       4.834    
        4.882       4.875       4.804       4.658       4.451       4.161       3.741       3.383       3.069       2.557    
        1.997       1.547       1.259       1.034      0.8041      0.5874      0.4031      0.2799      0.1636       0.000    
  27    10.00       9.886       9.763       9.637       9.513       9.382       9.255       9.102       8.911       8.706    
        8.377       7.947       7.578       7.284       7.079       6.840       6.533       6.258       6.090       5.944    
        5.785       5.543       5.167       4.708       4.241       4.204       4.371       4.580       4.769       4.864    
        4.880       4.858       4.773       4.611       4.368       3.974       3.576       3.276       2.794       2.251    
        1.812       1.521       1.303       1.106      0.8794      0.6415      0.4383      0.3083      0.1945       0.000    
  28    10.00       9.894       9.793       9.679       9.558       9.420       9.279       9.132       8.966       8.727    
        8.345       7.970       7.648       7.359       7.140       6.907       6.656       6.389       6.150       5.998    
        5.871       5.697       5.453       5.117       4.828       4.655       4.685       4.817       4.882       4.911    
        4.897       4.853       4.747       4.538       4.214       3.802       3.451       3.026       2.518       2.128    
        1.812       1.564       1.351       1.146      0.9246      0.7005      0.4975      0.3513      0.2008       0.000    
  29    10.00       9.902       9.804       9.714       9.596       9.471       9.334       9.183       9.001       8.683    
        8.327       8.011       7.705       7.461       7.213       6.964       6.736       6.521       6.289       6.088    
        5.950       5.816       5.654       5.451       5.176       5.037       5.016       5.020       5.024       4.989    
        4.932       4.841       4.710       4.439       4.035       3.661       3.299       2.849       2.439       2.149    
        1.891       1.620       1.377       1.181      0.9814      0.7415      0.5262      0.3674      0.2038       0.000    
  30    10.00       9.915       9.834       9.756       9.650       9.527       9.404       9.232       8.989       8.701    
        8.341       7.999       7.749       7.507       7.272       7.047       6.861       6.661       6.435       6.221    
        6.050       5.936       5.797       5.659       5.506       5.383       5.339       5.242       5.182       5.087    
        4.963       4.804       4.610       4.320       3.992       3.634       3.243       2.816       2.501       2.235    
        1.928       1.654       1.443       1.219      0.9811      0.7683      0.5615      0.3906      0.2195       0.000    
  31    10.00       9.933       9.866       9.792       9.714       9.615       9.476       9.264       8.988       8.684    
        8.340       8.034       7.806       7.569       7.351       7.144       6.958       6.801       6.574       6.359    
        6.202       6.079       5.970       5.864       5.788       5.674       5.551       5.444       5.313       5.165    
        4.968       4.752       4.545       4.299       3.981       3.599       3.198       2.842       2.615       2.363    
        2.021       1.720       1.478       1.250       1.029      0.8095      0.5957      0.4115      0.2131       0.000    
  32    10.00       9.942       9.895       9.831       9.757       9.664       9.517       9.276       9.026       8.738    
        8.383       8.100       7.884       7.641       7.412       7.243       7.080       6.894       6.713       6.499    
        6.338       6.208       6.112       6.026       5.937       5.844       5.698       5.567       5.411       5.208    
        4.972       4.744       4.519       4.277       3.963       3.615       3.299       2.992       2.732       2.444    
        2.129       1.829       1.573       1.310       1.068      0.8818      0.6581      0.4045      0.1808       0.000    
  33    10.00       9.952       9.914       9.860       9.785       9.687       9.498       9.262       9.060       8.804    
        8.479       8.210       7.958       7.688       7.487       7.343       7.201       7.011       6.809       6.629    
        6.449       6.319       6.204       6.107       6.025       5.933       5.793       5.621       5.460       5.262    
        5.022       4.804       4.563       4.256       3.959       3.646       3.387       3.145       2.853       2.535    
        2.261       1.976       1.694       1.421       1.165      0.9570      0.7060      0.4077      0.1773       0.000    
  34    10.00       9.960       9.932       9.887       9.790       9.648       9.475       9.311       9.103       8.850    
        8.576       8.285       8.005       7.743       7.576       7.457       7.304       7.124       6.899       6.727    
        6.569       6.408       6.284       6.184       6.104       5.995       5.838       5.673       5.495       5.269    
        5.059       4.872       4.640       4.339       4.034       3.741       3.495       3.257       2.953       2.661    
        2.413       2.139       1.830       1.557       1.297       1.057      0.7571      0.4598      0.2411       0.000    
  35    10.00       9.967       9.933       9.869       9.752       9.614       9.491       9.350       9.184       8.913    
        8.615       8.328       8.049       7.830       7.678       7.552       7.392       7.203       6.988       6.785    
        6.639       6.492       6.365       6.269       6.181       6.069       5.893       5.696       5.489       5.257    
        5.094       4.907       4.666       4.444       4.185       3.872       3.595       3.392       3.099       2.783    
        2.543       2.261       1.951       1.682       1.412       1.149      0.8688      0.5759      0.2849       0.000    
  36    10.00       9.960       9.906       9.837       9.729       9.602       9.500       9.381       9.203       8.946    
        8.627       8.327       8.128       7.956       7.806       7.647       7.460       7.272       7.051       6.803    
        6.642       6.531       6.418       6.337       6.246       6.108       5.917       5.700       5.451       5.231    
        5.085       4.934       4.719       4.501       4.282       4.000       3.720       3.499       3.235       2.890    
        2.626       2.311       2.001       1.795       1.532       1.239      0.9588      0.6526      0.3193       0.000    
  37    10.00       9.940       9.883       9.815       9.711       9.600       9.485       9.373       9.213       8.918    
        8.589       8.359       8.238       8.075       7.890       7.735       7.513       7.284       7.019       6.772    
        6.652       6.559       6.451       6.366       6.263       6.101       5.907       5.637       5.404       5.249    
        5.112       4.944       4.731       4.556       4.331       4.064       3.843       3.628       3.332       2.952    
        2.605       2.309       2.093       1.879       1.616       1.337       1.057      0.7199      0.3953       0.000    
  38    10.00       9.933       9.861       9.790       9.699       9.596       9.476       9.356       9.175       8.901    
        8.655       8.470       8.315       8.170       7.975       7.734       7.492       7.237       6.946       6.771    
        6.673       6.557       6.454       6.380       6.268       6.080       5.802       5.544       5.412       5.289    
        5.144       4.964       4.767       4.593       4.372       4.126       3.943       3.726       3.347       2.928    
        2.627       2.379       2.164       1.943       1.709       1.427       1.147      0.8325      0.4115       0.000    
  39    10.00       9.915       9.845       9.782       9.696       9.580       9.456       9.333       9.164       8.941    
        8.748       8.606       8.435       8.240       7.975       7.682       7.413       7.122       6.910       6.789    
        6.655       6.523       6.444       6.374       6.269       6.025       5.736       5.568       5.443       5.316    
        5.154       4.982       4.791       4.614       4.446       4.242       4.002       3.738       3.365       2.974    
        2.655       2.398       2.229       2.044       1.781       1.501       1.217      0.8665      0.4061       0.000    
  40    10.00       9.906       9.840       9.777       9.690       9.572       9.451       9.331       9.181       8.995    
        8.837       8.715       8.514       8.224       7.900       7.608       7.324       7.071       6.911       6.772    
        6.618       6.500       6.429       6.348       6.209       5.995       5.790       5.616       5.474       5.342    
        5.183       4.996       4.814       4.665       4.515       4.309       4.032       3.756       3.375       2.956    
        2.657       2.454       2.267       2.109       1.832       1.526       1.266      0.8688      0.4045       0.000    
  41    10.00       9.915       9.840       9.765       9.672       9.580       9.479       9.367       9.220       9.052    
        8.901       8.759       8.512       8.176       7.842       7.568       7.287       7.043       6.888       6.739    
        6.587       6.481       6.406       6.309       6.164       5.998       5.857       5.686       5.508       5.353    
        5.200       5.029       4.853       4.723       4.564       4.357       4.080       3.698       3.261       2.938    
        2.721       2.524       2.331       2.110       1.822       1.529       1.307      0.9254      0.4196       0.000    
  42    10.00       9.916       9.831       9.766       9.697       9.612       9.505       9.380       9.255       9.127    
        8.942       8.706       8.422       8.103       7.794       7.543       7.269       7.027       6.863       6.696    
        6.553       6.460       6.378       6.289       6.154       6.035       5.914       5.722       5.523       5.383    
        5.255       5.067       4.878       4.751       4.604       4.384       4.042       3.592       3.191       2.950    
        2.786       2.610       2.364       2.071       1.795       1.565       1.335      0.9759      0.4816       0.000    
  43    10.00       9.909       9.838       9.782       9.728       9.647       9.543       9.424       9.288       9.098    
        8.866       8.625       8.359       8.027       7.748       7.516       7.270       7.028       6.820       6.665    
        6.534       6.440       6.369       6.295       6.178       6.053       5.931       5.733       5.559       5.454    
        5.298       5.095       4.912       4.781       4.609       4.324       3.929       3.501       3.209       3.024    
        2.850       2.647       2.346       2.044       1.800       1.579       1.380      0.9897      0.4523       0.000    
  44    10.00       9.909       9.848       9.797       9.733       9.673       9.588       9.433       9.235       9.020    
        8.826       8.581       8.262       7.985       7.760       7.495       7.225       6.973       6.767       6.630    
        6.532       6.450       6.376       6.298       6.197       6.069       5.904       5.740       5.621       5.495    
        5.356       5.178       4.969       4.769       4.559       4.240       3.825       3.473       3.247       3.068    
        2.892       2.652       2.361       2.100       1.839       1.601       1.358      0.8935      0.4109       0.000    
  45    10.00       9.919       9.862       9.797       9.735       9.683       9.547       9.365       9.167       8.982    
        8.823       8.498       8.166       7.964       7.726       7.433       7.141       6.908       6.739       6.628    
        6.552       6.474       6.392       6.300       6.188       6.062       5.923       5.795       5.691       5.560    
        5.398       5.214       4.998       4.747       4.495       4.151       3.762       3.484       3.313       3.128    
        2.893       2.619       2.369       2.131       1.900       1.663       1.268      0.7941      0.3997       0.000    
  46    10.00       9.935       9.874       9.798       9.727       9.626       9.479       9.342       9.176       8.978    
        8.716       8.409       8.143       7.887       7.634       7.351       7.080       6.906       6.767       6.659    
        6.583       6.507       6.403       6.288       6.179       6.073       5.962       5.845       5.739       5.624    
        5.478       5.284       5.039       4.741       4.381       4.023       3.735       3.539       3.359       3.167    
        2.889       2.597       2.348       2.160       1.938       1.630       1.181      0.7587      0.3740       0.000    
  47    10.00       9.947       9.890       9.814       9.694       9.561       9.435       9.328       9.176       8.916    
        8.603       8.321       8.090       7.876       7.607       7.299       7.060       6.895       6.783       6.693    
        6.611       6.522       6.414       6.292       6.186       6.101       6.009       5.893       5.771       5.659    
        5.532       5.369       5.045       4.626       4.275       4.017       3.775       3.606       3.447       3.181    
        2.843       2.533       2.307       2.177       1.933       1.556       1.117      0.7320      0.3698       0.000    
  48    10.00       9.953       9.894       9.782       9.659       9.544       9.418       9.309       9.156       8.863    
        8.521       8.285       8.096       7.835       7.521       7.243       7.063       6.897       6.786       6.716    
        6.633       6.526       6.410       6.298       6.210       6.142       6.060       5.931       5.790       5.669    
        5.536       5.340       5.003       4.655       4.341       4.057       3.841       3.668       3.465       3.127    
        2.763       2.524       2.344       2.114       1.793       1.458       1.082      0.7375      0.3905       0.000    
  49    10.00       9.951       9.861       9.754       9.661       9.538       9.415       9.301       9.108       8.797    
        8.492       8.266       8.030       7.766       7.529       7.270       7.019       6.865       6.797       6.732    
        6.653       6.531       6.395       6.298       6.230       6.180       6.086       5.938       5.790       5.680    
        5.535       5.278       4.980       4.734       4.471       4.158       3.879       3.665       3.425       3.063    
        2.770       2.560       2.312       1.980       1.695       1.393       1.065      0.7497      0.3818       0.000    
  50    10.00       9.938       9.840       9.741       9.667       9.552       9.416       9.270       9.062       8.817    
        8.508       8.205       7.959       7.749       7.558       7.268       6.982       6.865       6.806       6.742    
        6.666       6.529       6.384       6.296       6.242       6.196       6.091       5.931       5.790       5.678    
        5.520       5.250       5.021       4.810       4.526       4.214       3.932       3.647       3.303       2.982    
        2.826       2.606       2.244       1.909       1.671       1.383       1.097      0.7324      0.3008       0.000    

 HEAD WILL BE SAVED ON UNIT   51 AT END OF TIME STEP  88, STRESS PERIOD    2

 DRAWDOWN WILL BE SAVED ON UNIT   52 AT END OF TIME STEP  88, STRESS PERIOD    2
1
  VOLUMETRIC BUDGET FOR ENTIRE MODEL AT END OF TIME STEP 88 IN STRESS PERIOD   2
  ------------------------------------------------------------------------------

     CUMULATIVE VOLUMES      L**3       RATES FOR THIS TIME STEP      L**3/T
     ------------------                 ------------------------

           IN:                                      IN:
           ---                                      ---
             STORAGE =       40468.0898               STORAGE =         384.6002
       CONSTANT HEAD =       51374.1016         CONSTANT HEAD =         645.1803
               WELLS =           0.0000                 WELLS =           0.0000

            TOTAL IN =       91842.1875              TOTAL IN =        1029.7805

          OUT:                                     OUT:
          ----                                     ----
             STORAGE =       9.3745E-03               STORAGE =           0.0000
       CONSTANT HEAD =       47842.1641         CONSTANT HEAD =         529.7805
               WELLS =       44000.0000                 WELLS =         500.0000

           TOTAL OUT =       91842.1719             TOTAL OUT =        1029.7805

            IN - OUT =       1.5625E-02              IN - OUT =           0.0000

 PERCENT DISCREPANCY =           0.00     PERCENT DISCREPANCY =           0.00






          TIME SUMMARY AT END OF TIME STEP  88 IN STRESS PERIOD    2
                    SECONDS     MINUTES      HOURS       DAYS        YEARS
                    -----------------------------------------------------------
   TIME STEP LENGTH  86400.      1440.0      24.000      1.0000     2.73785E-03
 STRESS PERIOD TIME 7.60320E+06 1.26720E+05  2112.0      88.000     0.24093    
         TOTAL TIME 7.68960E+06 1.28160E+05  2136.0      89.000     0.24367    
1
 
 SOLVING FOR HEAD 

 OUTPUT CONTROL FOR STRESS PERIOD    2   TIME STEP  89
    SAVE HEAD FOR ALL LAYERS
    SAVE DRAWDOWN FOR ALL LAYERS
    SAVE BUDGET
    PRINT HEAD FOR ALL LAYERS
    PRINT BUDGET
 UBDSV1 SAVING "         STORAGE" ON UNIT  53 AT TIME STEP 89, STRESS PERIOD   2
 UBDSV2 SAVING "   CONSTANT HEAD" ON UNIT  53 AT TIME STEP 89, STRESS PERIOD   2
 UBDSV1 SAVING "FLOW RIGHT FACE " ON UNIT  53 AT TIME STEP 89, STRESS PERIOD   2
 UBDSV1 SAVING "FLOW FRONT FACE " ON UNIT  53 AT TIME STEP 89, STRESS PERIOD   2
1
              HEAD IN LAYER   1 AT END OF TIME STEP  89 IN STRESS PERIOD    2
  ---------------------------------------------------------------------------

            1           2           3           4           5           6           7           8           9          10
           11          12          13          14          15          16          17          18          19          20
           21          22          23          24          25          26          27          28          29          30
           31          32          33          34          35          36          37          38          39          40
           41          42          43          44          45          46          47          48          49          50
 ........................................................................................................................
   1    10.00       9.951       9.884       9.817       9.762       9.694       9.627       9.558       9.464       9.388    
        9.343       9.298       9.249       9.200       9.121       9.035       8.941       8.868       8.835       8.799    
        8.755       8.718       8.680       8.633       8.567       8.454       8.318       8.187       8.037       7.889    
        7.679       7.345       6.954       6.541       6.080       5.654       5.295       4.962       4.509       4.017    
        3.599       3.188       2.621       2.084       1.708       1.331       1.015      0.8111      0.5380       0.000    
   2    10.00       9.950       9.890       9.823       9.764       9.701       9.628       9.536       9.446       9.388    
        9.348       9.307       9.269       9.208       9.117       9.028       8.942       8.871       8.836       8.795    
        8.750       8.721       8.691       8.641       8.565       8.457       8.320       8.183       8.043       7.895    
        7.667       7.323       6.909       6.443       5.978       5.568       5.247       4.921       4.461       3.999    
        3.578       3.084       2.572       2.148       1.775       1.425       1.065      0.7703      0.4113       0.000    
   3    10.00       9.946       9.888       9.827       9.767       9.694       9.602       9.515       9.458       9.405    
        9.358       9.323       9.286       9.228       9.137       9.026       8.935       8.876       8.832       8.791    
        8.754       8.723       8.692       8.629       8.547       8.437       8.307       8.203       8.054       7.880    
        7.585       7.183       6.740       6.286       5.860       5.482       5.197       4.860       4.360       3.911    
        3.562       3.114       2.646       2.239       1.853       1.500       1.074      0.6607      0.2906       0.000    
   4    10.00       9.950       9.891       9.824       9.750       9.667       9.579       9.514       9.466       9.415    
        9.375       9.345       9.303       9.241       9.157       9.036       8.935       8.880       8.832       8.793    
        8.750       8.714       8.675       8.607       8.523       8.416       8.288       8.171       8.054       7.834    
        7.450       6.955       6.480       6.132       5.819       5.455       5.090       4.661       4.239       3.915    
        3.606       3.213       2.746       2.346       1.942       1.514       1.024      0.5865      0.2732       0.000    
   5    10.00       9.946       9.884       9.808       9.731       9.653       9.577       9.522       9.471       9.428    
        9.392       9.361       9.312       9.239       9.141       9.030       8.944       8.883       8.834       8.780    
        8.729       8.692       8.643       8.573       8.495       8.371       8.243       8.143       8.026       7.739    
        7.231       6.682       6.290       6.028       5.746       5.381       4.964       4.542       4.248       3.975    
        3.699       3.295       2.811       2.463       2.053       1.494      0.9315      0.5412      0.2723       0.000    
   6    10.00       9.933       9.859       9.800       9.727       9.647       9.582       9.533       9.481       9.441    
        9.408       9.369       9.306       9.220       9.136       9.044       8.951       8.875       8.812       8.749    
        8.705       8.664       8.618       8.545       8.429       8.309       8.215       8.105       7.907       7.490    
        6.920       6.421       6.122       5.928       5.701       5.299       4.849       4.522       4.306       4.071    
        3.806       3.443       2.966       2.534       2.027       1.429      0.8352      0.4759      0.2659       0.000    
   7    10.00       9.914       9.845       9.786       9.717       9.659       9.597       9.546       9.502       9.459    
        9.416       9.360       9.283       9.200       9.124       9.048       8.943       8.841       8.773       8.722    
        8.678       8.634       8.587       8.487       8.367       8.273       8.168       7.988       7.646       7.113    
        6.575       6.188       6.007       5.860       5.569       5.168       4.876       4.596       4.368       4.208    
        3.943       3.570       3.060       2.502       1.878       1.191      0.7000      0.4832      0.2447       0.000    
   8    10.00       9.909       9.844       9.782       9.720       9.668       9.615       9.566       9.523       9.482    
        9.419       9.337       9.256       9.183       9.111       9.017       8.892       8.796       8.744       8.695    
        8.644       8.607       8.528       8.419       8.312       8.200       7.999       7.712       7.239       6.778    
        6.384       6.086       5.951       5.771       5.439       5.134       4.893       4.690       4.512       4.325    
        4.052       3.594       3.005       2.369       1.657       1.075      0.7406      0.4739      0.2184       0.000    
   9    10.00       9.913       9.840       9.779       9.734       9.691       9.639       9.590       9.541       9.494    
        9.413       9.312       9.228       9.154       9.067       8.961       8.848       8.764       8.710       8.659    
        8.613       8.551       8.440       8.339       8.228       8.067       7.773       7.340       6.874       6.546    
        6.238       6.027       5.877       5.636       5.333       5.101       4.932       4.782       4.631       4.429    
        4.090       3.614       2.990       2.280       1.625       1.113      0.7556      0.4702      0.2332       0.000    
  10    10.00       9.911       9.837       9.787       9.747       9.705       9.659       9.616       9.559       9.483    
        9.385       9.283       9.201       9.119       9.028       8.904       8.791       8.724       8.677       8.626    
        8.578       8.476       8.356       8.244       8.087       7.842       7.398       6.932       6.572       6.328    
        6.148       5.980       5.774       5.528       5.277       5.107       4.986       4.864       4.695       4.459    
        4.096       3.576       2.909       2.276       1.759       1.274      0.8094      0.4995      0.2633       0.000    
  11    10.00       9.899       9.842       9.800       9.760       9.723       9.682       9.624       9.542       9.456    
        9.358       9.258       9.179       9.069       8.943       8.835       8.755       8.692       8.646       8.589    
        8.502       8.369       8.195       8.028       7.751       7.384       6.993       6.690       6.407       6.236    
        6.086       5.860       5.631       5.450       5.288       5.169       5.051       4.893       4.693       4.417    
        4.077       3.618       2.946       2.371       1.914       1.449      0.9336      0.4955      0.1990       0.000    
  12    10.00       9.908       9.852       9.807       9.773       9.734       9.689       9.610       9.512       9.423    
        9.330       9.230       9.123       8.990       8.886       8.793       8.710       8.658       8.597       8.509    
        8.336       8.107       7.863       7.612       7.269       6.990       6.792       6.479       6.250       6.121    
        5.964       5.751       5.576       5.427       5.327       5.219       5.079       4.900       4.662       4.374    
        4.041       3.593       2.979       2.467       2.054       1.554      0.9839      0.4697      0.1562       0.000    
  13    10.00       9.928       9.876       9.827       9.784       9.739       9.671       9.573       9.471       9.384    
        9.285       9.184       9.071       8.933       8.815       8.722       8.663       8.595       8.508       8.297    
        7.980       7.702       7.440       7.126       6.861       6.740       6.493       6.210       6.098       5.995    
        5.828       5.650       5.528       5.433       5.353       5.254       5.094       4.872       4.640       4.344    
        4.014       3.561       2.928       2.450       2.068       1.521      0.9167      0.4250      0.1228       0.000    
  14    10.00       9.947       9.900       9.848       9.796       9.726       9.627       9.523       9.432       9.332    
        9.234       9.141       9.005       8.851       8.743       8.670       8.570       8.464       8.254       7.882    
        7.545       7.300       6.957       6.704       6.587       6.452       6.198       6.039       5.924       5.823    
        5.686       5.584       5.516       5.445       5.363       5.263       5.083       4.840       4.592       4.292    
        3.939       3.392       2.796       2.411       1.943       1.417      0.9029      0.3878      9.9865E-02   0.000    
  15    10.00       9.958       9.910       9.858       9.796       9.691       9.569       9.478       9.387       9.291    
        9.216       9.107       8.928       8.759       8.660       8.527       8.393       8.257       7.902       7.468    
        7.193       6.846       6.537       6.445       6.377       6.198       5.997       5.841       5.761       5.690    
        5.614       5.561       5.513       5.454       5.369       5.246       5.037       4.761       4.501       4.225    
        3.844       3.312       2.799       2.281       1.714       1.243      0.7757      0.3413      0.1025       0.000    
  16    10.00       9.969       9.921       9.859       9.763       9.633       9.528       9.454       9.372       9.272    
        9.171       9.013       8.805       8.644       8.499       8.342       8.251       7.974       7.459       7.063    
        6.790       6.452       6.341       6.288       6.158       5.933       5.771       5.702       5.684       5.641    
        5.588       5.546       5.508       5.444       5.341       5.188       4.936       4.687       4.484       4.190    
        3.757       3.183       2.592       2.014       1.532       1.065      0.6603      0.3237      0.1092       0.000    
  17    10.00       9.968       9.918       9.835       9.715       9.584       9.497       9.428       9.336       9.224    
        9.054       8.853       8.666       8.490       8.310       8.160       7.933       7.471       6.995       6.726    
        6.460       6.258       6.171       6.045       5.841       5.675       5.636       5.634       5.626       5.591    
        5.553       5.523       5.488       5.427       5.275       5.065       4.850       4.678       4.487       4.117    
        3.537       2.951       2.385       1.818       1.310      0.8619      0.5531      0.2892      0.1189       0.000    
  18    10.00       9.961       9.901       9.801       9.650       9.545       9.476       9.383       9.276       9.119    
        8.912       8.734       8.547       8.309       8.072       7.823       7.494       7.029       6.678       6.445    
        6.232       6.064       5.933       5.752       5.615       5.575       5.567       5.568       5.552       5.528    
        5.510       5.490       5.450       5.343       5.184       5.008       4.832       4.679       4.410       3.913    
        3.320       2.695       2.088       1.620       1.215      0.8078      0.4750      0.2391      0.1146       0.000    
  19    10.00       9.951       9.885       9.739       9.589       9.527       9.449       9.333       9.201       9.032    
        8.844       8.676       8.403       8.041       7.761       7.507       7.112       6.694       6.462       6.284    
        6.066       5.863       5.718       5.581       5.516       5.504       5.501       5.485       5.459       5.456    
        5.451       5.436       5.376       5.274       5.144       4.976       4.819       4.598       4.134       3.616    
        3.135       2.488       1.911       1.539       1.137      0.7289      0.4290      0.2436      0.1248       0.000    
  20    10.00       9.940       9.829       9.679       9.569       9.502       9.417       9.293       9.145       8.991    
        8.798       8.541       8.133       7.776       7.529       7.216       6.828       6.603       6.392       6.146    
        5.906       5.725       5.576       5.480       5.433       5.410       5.381       5.376       5.363       5.373    
        5.379       5.367       5.303       5.212       5.080       4.936       4.740       4.335       3.833       3.419    
        2.896       2.298       1.865       1.505       1.099      0.6473      0.3751      0.2537      0.1307       0.000    
  21    10.00       9.901       9.781       9.655       9.548       9.477       9.385       9.238       9.092       8.946    
        8.686       8.294       7.881       7.614       7.340       7.012       6.727       6.514       6.261       6.003    
        5.774       5.598       5.468       5.367       5.301       5.250       5.233       5.242       5.246       5.264    
        5.287       5.263       5.200       5.117       4.986       4.830       4.521       4.096       3.701       3.199    
        2.702       2.229       1.863       1.499      0.9274      0.5251      0.3799      0.2867      0.1375       0.000    
  22    10.00       9.874       9.731       9.618       9.533       9.447       9.317       9.181       9.051       8.849    
        8.516       8.074       7.749       7.509       7.203       6.869       6.597       6.373       6.143       5.900    
        5.674       5.488       5.314       5.158       5.071       5.051       5.067       5.081       5.119       5.143    
        5.167       5.141       5.091       5.005       4.878       4.723       4.410       4.005       3.488       3.001    
        2.641       2.264       1.823       1.212      0.7254      0.5241      0.3986      0.2655      9.8276E-02   0.000    
  23    10.00       9.838       9.697       9.609       9.518       9.390       9.248       9.147       8.983       8.730    
        8.342       7.966       7.733       7.433       7.036       6.706       6.494       6.313       6.098       5.837    
        5.599       5.381       5.132       4.840       4.627       4.669       4.805       4.893       4.973       5.028    
        5.050       5.040       4.997       4.917       4.799       4.626       4.311       3.810       3.292       2.949    
        2.618       2.142       1.507      0.9804      0.7149      0.5351      0.3831      0.2262      9.0055E-02   0.000    
  24    10.00       9.812       9.711       9.605       9.475       9.342       9.234       9.121       8.963       8.629    
        8.267       7.989       7.725       7.325       6.891       6.655       6.476       6.298       6.055       5.809    
        5.597       5.321       4.922       4.370       3.697       3.968       4.374       4.657       4.825       4.911    
        4.956       4.954       4.924       4.837       4.704       4.484       4.084       3.610       3.222       2.866    
        2.458       1.925       1.356      0.9525      0.7173      0.5221      0.3501      0.2454      0.1205       0.000    
  25    10.00       9.834       9.730       9.596       9.461       9.339       9.231       9.128       8.892       8.569    
        8.290       8.009       7.663       7.225       6.903       6.691       6.488       6.274       6.052       5.840    
        5.597       5.332       4.763       3.713       1.851       3.231       3.977       4.420       4.695       4.840    
        4.895       4.899       4.860       4.740       4.556       4.253       3.874       3.501       3.169       2.751    
        2.259       1.750       1.268      0.9457      0.7445      0.5433      0.3692      0.2572      0.1601       0.000    
  26    10.00       9.856       9.756       9.614       9.470       9.359       9.244       9.092       8.860       8.635    
        8.373       7.988       7.566       7.212       6.969       6.760       6.524       6.261       6.046       5.869    
        5.667       5.405       4.911       4.137       3.281       3.633       4.080       4.410       4.664       4.823    
        4.871       4.864       4.793       4.647       4.442       4.153       3.734       3.377       3.064       2.554    
        1.995       1.545       1.258       1.033      0.8034      0.5869      0.4028      0.2797      0.1634       0.000    
  27    10.00       9.886       9.762       9.635       9.511       9.379       9.252       9.099       8.907       8.701    
        8.371       7.941       7.570       7.276       7.070       6.830       6.523       6.249       6.080       5.934    
        5.775       5.532       5.156       4.697       4.230       4.193       4.360       4.569       4.757       4.852    
        4.869       4.846       4.762       4.601       4.359       3.967       3.569       3.271       2.790       2.248    
        1.810       1.519       1.302       1.105      0.8787      0.6410      0.4379      0.3080      0.1944       0.000    
  28    10.00       9.894       9.793       9.678       9.556       9.417       9.277       9.129       8.962       8.722    
        8.339       7.964       7.640       7.351       7.132       6.898       6.647       6.379       6.140       5.988    
        5.860       5.686       5.443       5.106       4.817       4.644       4.673       4.805       4.871       4.899    
        4.886       4.842       4.737       4.528       4.206       3.795       3.446       3.021       2.515       2.125    
        1.810       1.562       1.350       1.145      0.9238      0.6999      0.4971      0.3510      0.2007       0.000    
  29    10.00       9.902       9.803       9.713       9.594       9.469       9.332       9.180       8.997       8.679    
        8.322       8.004       7.698       7.453       7.205       6.956       6.727       6.512       6.280       6.078    
        5.940       5.806       5.643       5.441       5.165       5.026       5.005       5.009       5.012       4.978    
        4.921       4.830       4.700       4.431       4.028       3.656       3.294       2.846       2.436       2.147    
        1.890       1.618       1.376       1.180      0.9806      0.7409      0.5258      0.3672      0.2037       0.000    
  30    10.00       9.915       9.833       9.755       9.649       9.526       9.402       9.230       8.986       8.696    
        8.336       7.993       7.742       7.499       7.264       7.038       6.853       6.652       6.425       6.211    
        6.040       5.926       5.787       5.648       5.496       5.372       5.328       5.231       5.171       5.076    
        4.953       4.794       4.602       4.313       3.986       3.629       3.239       2.813       2.499       2.233    
        1.926       1.653       1.442       1.218      0.9804      0.7677      0.5611      0.3903      0.2194       0.000    
  31    10.00       9.933       9.866       9.792       9.713       9.613       9.474       9.261       8.985       8.679    
        8.335       8.028       7.799       7.561       7.343       7.136       6.950       6.793       6.565       6.349    
        6.192       6.069       5.960       5.854       5.778       5.664       5.540       5.433       5.302       5.155    
        4.958       4.743       4.538       4.293       3.976       3.595       3.194       2.839       2.613       2.361    
        2.020       1.718       1.477       1.249       1.028      0.8089      0.5953      0.4112      0.2130       0.000    
  32    10.00       9.942       9.895       9.830       9.756       9.663       9.515       9.273       9.022       8.734    
        8.378       8.094       7.878       7.634       7.404       7.235       7.072       6.886       6.704       6.490    
        6.328       6.198       6.103       6.016       5.927       5.834       5.688       5.557       5.401       5.199    
        4.964       4.737       4.512       4.271       3.958       3.611       3.295       2.989       2.729       2.442    
        2.127       1.828       1.572       1.309       1.067      0.8812      0.6577      0.4043      0.1807       0.000    
  33    10.00       9.952       9.914       9.860       9.785       9.686       9.497       9.259       9.057       8.800    
        8.475       8.205       7.952       7.681       7.480       7.335       7.193       7.002       6.801       6.621    
        6.440       6.310       6.195       6.098       6.016       5.924       5.784       5.612       5.451       5.254    
        5.014       4.798       4.557       4.251       3.954       3.642       3.384       3.143       2.851       2.533    
        2.259       1.975       1.693       1.420       1.165      0.9565      0.7056      0.4075      0.1772       0.000    
  34    10.00       9.960       9.932       9.886       9.790       9.647       9.473       9.309       9.100       8.846    
        8.571       8.280       8.000       7.737       7.569       7.450       7.297       7.116       6.891       6.719    
        6.561       6.400       6.275       6.176       6.095       5.986       5.830       5.665       5.487       5.263    
        5.053       4.866       4.635       4.335       4.031       3.738       3.492       3.255       2.951       2.659    
        2.412       2.137       1.829       1.556       1.297       1.057      0.7568      0.4596      0.2410       0.000    
  35    10.00       9.967       9.933       9.869       9.751       9.613       9.490       9.348       9.181       8.909    
        8.611       8.324       8.044       7.825       7.671       7.545       7.385       7.196       6.981       6.778    
        6.631       6.484       6.357       6.261       6.173       6.061       5.886       5.689       5.482       5.251    
        5.088       4.903       4.662       4.440       4.182       3.869       3.592       3.390       3.097       2.782    
        2.542       2.260       1.951       1.682       1.411       1.148      0.8685      0.5757      0.2848       0.000    
  36    10.00       9.960       9.906       9.837       9.729       9.601       9.499       9.379       9.201       8.943    
        8.623       8.323       8.123       7.951       7.800       7.641       7.454       7.265       7.044       6.796    
        6.636       6.524       6.411       6.330       6.239       6.101       5.911       5.694       5.446       5.227    
        5.081       4.930       4.715       4.498       4.279       3.998       3.718       3.497       3.234       2.888    
        2.624       2.310       2.001       1.795       1.532       1.239      0.9585      0.6524      0.3192       0.000    
  37    10.00       9.940       9.883       9.814       9.710       9.599       9.484       9.372       9.211       8.915    
        8.586       8.355       8.234       8.070       7.884       7.729       7.507       7.278       7.012       6.766    
        6.646       6.553       6.445       6.360       6.256       6.094       5.902       5.632       5.400       5.245    
        5.109       4.941       4.728       4.553       4.328       4.061       3.841       3.627       3.330       2.951    
        2.604       2.308       2.092       1.878       1.615       1.337       1.056      0.7196      0.3952       0.000    
  38    10.00       9.933       9.860       9.790       9.699       9.595       9.475       9.354       9.173       8.898    
        8.652       8.466       8.311       8.165       7.970       7.728       7.486       7.232       6.940       6.765    
        6.667       6.551       6.449       6.374       6.263       6.075       5.797       5.540       5.408       5.286    
        5.141       4.961       4.765       4.590       4.370       4.123       3.941       3.724       3.346       2.927    
        2.626       2.378       2.163       1.942       1.709       1.426       1.147      0.8323      0.4114       0.000    
  39    10.00       9.915       9.845       9.782       9.695       9.579       9.454       9.331       9.162       8.938    
        8.745       8.603       8.431       8.236       7.970       7.677       7.408       7.117       6.905       6.784    
        6.650       6.518       6.439       6.369       6.265       6.021       5.733       5.564       5.440       5.313    
        5.151       4.979       4.788       4.612       4.444       4.240       4.000       3.737       3.363       2.973    
        2.654       2.397       2.228       2.043       1.780       1.501       1.217      0.8662      0.4060       0.000    
  40    10.00       9.906       9.840       9.777       9.689       9.571       9.450       9.329       9.179       8.993    
        8.835       8.712       8.511       8.221       7.896       7.604       7.320       7.067       6.907       6.767    
        6.614       6.496       6.425       6.344       6.205       5.991       5.787       5.613       5.471       5.339    
        5.181       4.993       4.812       4.663       4.513       4.307       4.030       3.754       3.374       2.955    
        2.656       2.453       2.267       2.108       1.832       1.525       1.266      0.8685      0.4044       0.000    
  41    10.00       9.915       9.840       9.764       9.671       9.579       9.478       9.366       9.218       9.050    
        8.899       8.756       8.509       8.173       7.839       7.564       7.283       7.039       6.884       6.736    
        6.583       6.478       6.402       6.306       6.161       5.995       5.854       5.683       5.505       5.351    
        5.198       5.026       4.851       4.721       4.562       4.356       4.078       3.696       3.260       2.937    
        2.720       2.523       2.330       2.109       1.822       1.529       1.306      0.9251      0.4195       0.000    
  42    10.00       9.916       9.831       9.765       9.697       9.611       9.505       9.379       9.254       9.126    
        8.940       8.703       8.419       8.100       7.791       7.540       7.265       7.024       6.860       6.693    
        6.550       6.457       6.375       6.286       6.151       6.032       5.911       5.720       5.521       5.380    
        5.252       5.065       4.876       4.749       4.602       4.382       4.041       3.590       3.190       2.949    
        2.785       2.609       2.364       2.070       1.794       1.565       1.334      0.9756      0.4814       0.000    
  43    10.00       9.909       9.838       9.782       9.728       9.647       9.542       9.423       9.287       9.096    
        8.865       8.623       8.357       8.025       7.746       7.513       7.267       7.025       6.817       6.662    
        6.531       6.437       6.366       6.292       6.175       6.050       5.928       5.731       5.556       5.451    
        5.296       5.092       4.910       4.779       4.607       4.322       3.927       3.500       3.208       3.023    
        2.849       2.647       2.345       2.044       1.800       1.579       1.380      0.9894      0.4522       0.000    
  44    10.00       9.909       9.847       9.797       9.733       9.673       9.587       9.432       9.234       9.018    
        8.825       8.579       8.260       7.983       7.757       7.492       7.222       6.970       6.764       6.627    
        6.529       6.447       6.373       6.295       6.194       6.066       5.902       5.737       5.618       5.493    
        5.353       5.176       4.966       4.767       4.557       4.238       3.824       3.472       3.246       3.067    
        2.891       2.651       2.360       2.099       1.838       1.601       1.358      0.8932      0.4108       0.000    
  45    10.00       9.919       9.862       9.797       9.735       9.682       9.546       9.365       9.166       8.981    
        8.821       8.497       8.164       7.963       7.724       7.431       7.139       6.905       6.737       6.625    
        6.550       6.471       6.389       6.297       6.185       6.060       5.920       5.793       5.688       5.558    
        5.396       5.212       4.996       4.745       4.493       4.150       3.761       3.483       3.311       3.127    
        2.892       2.618       2.368       2.130       1.899       1.663       1.268      0.7939      0.3996       0.000    
  46    10.00       9.935       9.874       9.798       9.727       9.625       9.479       9.342       9.175       8.977    
        8.715       8.407       8.141       7.885       7.632       7.348       7.078       6.904       6.764       6.656    
        6.580       6.504       6.400       6.285       6.176       6.070       5.960       5.842       5.737       5.622    
        5.476       5.282       5.037       4.739       4.379       4.022       3.734       3.538       3.358       3.166    
        2.888       2.596       2.347       2.159       1.938       1.630       1.181      0.7584      0.3739       0.000    
  47    10.00       9.947       9.889       9.814       9.694       9.560       9.435       9.328       9.175       8.915    
        8.601       8.319       8.088       7.875       7.605       7.297       7.057       6.892       6.781       6.691    
        6.608       6.520       6.412       6.290       6.183       6.099       6.007       5.890       5.769       5.656    
        5.529       5.367       5.042       4.625       4.273       4.016       3.774       3.605       3.446       3.180    
        2.842       2.532       2.307       2.177       1.932       1.555       1.117      0.7318      0.3697       0.000    
  48    10.00       9.953       9.894       9.782       9.659       9.543       9.417       9.309       9.155       8.862    
        8.520       8.284       8.094       7.833       7.519       7.241       7.060       6.894       6.784       6.714    
        6.630       6.524       6.407       6.295       6.207       6.140       6.057       5.929       5.788       5.667    
        5.533       5.338       5.001       4.654       4.340       4.056       3.840       3.666       3.463       3.126    
        2.762       2.523       2.344       2.113       1.792       1.458       1.082      0.7373      0.3903       0.000    
  49    10.00       9.951       9.861       9.754       9.661       9.537       9.414       9.300       9.107       8.796    
        8.491       8.265       8.028       7.764       7.527       7.268       7.017       6.863       6.795       6.729    
        6.650       6.528       6.393       6.295       6.228       6.178       6.083       5.935       5.787       5.677    
        5.533       5.276       4.978       4.732       4.469       4.156       3.877       3.663       3.424       3.062    
        2.769       2.559       2.312       1.979       1.695       1.393       1.064      0.7495      0.3817       0.000    
  50    10.00       9.938       9.839       9.741       9.666       9.551       9.415       9.270       9.061       8.816    
        8.506       8.203       7.957       7.747       7.556       7.266       6.980       6.863       6.804       6.740    
        6.664       6.527       6.382       6.293       6.240       6.194       6.088       5.929       5.788       5.676    
        5.518       5.248       5.019       4.808       4.524       4.213       3.930       3.646       3.302       2.981    
        2.825       2.605       2.243       1.909       1.670       1.382       1.097      0.7322      0.3008       0.000    

 HEAD WILL BE SAVED ON UNIT   51 AT END OF TIME STEP  89, STRESS PERIOD    2

 DRAWDOWN WILL BE SAVED ON UNIT   52 AT END OF TIME STEP  89, STRESS PERIOD    2
1
  VOLUMETRIC BUDGET FOR ENTIRE MODEL AT END OF TIME STEP 89 IN STRESS PERIOD   2
  ------------------------------------------------------------------------------

     CUMULATIVE VOLUMES      L**3       RATES FOR THIS TIME STEP      L**3/T
     ------------------                 ------------------------

           IN:                                      IN:
           ---                                      ---
             STORAGE =       40850.6992               STORAGE =         382.6102
       CONSTANT HEAD =       52020.9375         CONSTANT HEAD =         646.8342
               WELLS =           0.0000                 WELLS =           0.0000

            TOTAL IN =       92871.6406              TOTAL IN =        1029.4443

          OUT:                                     OUT:
          ----                                     ----
             STORAGE =       9.3745E-03               STORAGE =           0.0000
       CONSTANT HEAD =       48371.6055         CONSTANT HEAD =         529.4432
               WELLS =       44500.0000                 WELLS =         500.0000

           TOTAL OUT =       92871.6172             TOTAL OUT =        1029.4432

            IN - OUT =       2.3438E-02              IN - OUT =       1.0986E-03

 PERCENT DISCREPANCY =           0.00     PERCENT DISCREPANCY =           0.00






          TIME SUMMARY AT END OF TIME STEP  89 IN STRESS PERIOD    2
                    SECONDS     MINUTES      HOURS       DAYS        YEARS
                    -----------------------------------------------------------
   TIME STEP LENGTH  86400.      1440.0      24.000      1.0000     2.73785E-03
 STRESS PERIOD TIME 7.68960E+06 1.28160E+05  2136.0      89.000     0.24367    
         TOTAL TIME 7.77600E+06 1.29600E+05  2160.0      90.000     0.24641    
1
 
 SOLVING FOR HEAD 

 OUTPUT CONTROL FOR STRESS PERIOD    2   TIME STEP  90
    SAVE HEAD FOR ALL LAYERS
    SAVE DRAWDOWN FOR ALL LAYERS
    SAVE BUDGET
    PRINT HEAD FOR ALL LAYERS
    PRINT BUDGET
 UBDSV1 SAVING "         STORAGE" ON UNIT  53 AT TIME STEP 90, STRESS PERIOD   2
 UBDSV2 SAVING "   CONSTANT HEAD" ON UNIT  53 AT TIME STEP 90, STRESS PERIOD   2
 UBDSV1 SAVING "FLOW RIGHT FACE " ON UNIT  53 AT TIME STEP 90, STRESS PERIOD   2
 UBDSV1 SAVING "FLOW FRONT FACE " ON UNIT  53 AT TIME STEP 90, STRESS PERIOD   2
1
              HEAD IN LAYER   1 AT END OF TIME STEP  90 IN STRESS PERIOD    2
  ---------------------------------------------------------------------------

            1           2           3           4           5           6           7           8           9          10
           11          12          13          14          15          16          17          18          19          20
           21          22          23          24          25          26          27          28          29          30
           31          32          33          34          35          36          37          38          39          40
           41          42          43          44          45          46          47          48          49          50
 ........................................................................................................................
   1    10.00       9.951       9.883       9.817       9.761       9.693       9.626       9.556       9.463       9.386    
        9.341       9.296       9.247       9.197       9.119       9.032       8.938       8.865       8.832       8.796    
        8.752       8.715       8.677       8.629       8.564       8.450       8.315       8.183       8.034       7.885    
        7.675       7.341       6.949       6.537       6.076       5.650       5.291       4.958       4.505       4.013    
        3.596       3.185       2.619       2.082       1.706       1.330       1.014      0.8104      0.5375       0.000    
   2    10.00       9.950       9.890       9.823       9.763       9.701       9.626       9.535       9.445       9.386    
        9.346       9.305       9.267       9.206       9.115       9.026       8.940       8.868       8.832       8.792    
        8.747       8.718       8.688       8.637       8.562       8.453       8.316       8.179       8.039       7.891    
        7.663       7.319       6.905       6.439       5.974       5.564       5.243       4.917       4.457       3.995    
        3.574       3.081       2.570       2.146       1.774       1.423       1.064      0.7696      0.4109       0.000    
   3    10.00       9.945       9.888       9.826       9.766       9.693       9.601       9.514       9.457       9.403    
        9.357       9.321       9.284       9.226       9.135       9.024       8.933       8.873       8.829       8.788    
        8.750       8.720       8.689       8.625       8.544       8.434       8.303       8.199       8.050       7.876    
        7.581       7.179       6.735       6.281       5.856       5.478       5.192       4.856       4.356       3.908    
        3.558       3.111       2.643       2.237       1.851       1.498       1.073      0.6601      0.2904       0.000    
   4    10.00       9.950       9.891       9.824       9.749       9.666       9.577       9.513       9.464       9.414    
        9.373       9.343       9.301       9.238       9.155       9.033       8.932       8.877       8.829       8.790    
        8.747       8.710       8.671       8.603       8.520       8.412       8.284       8.167       8.050       7.830    
        7.446       6.950       6.475       6.127       5.814       5.451       5.085       4.657       4.235       3.911    
        3.603       3.209       2.743       2.344       1.940       1.513       1.023      0.5860      0.2730       0.000    
   5    10.00       9.946       9.884       9.807       9.730       9.652       9.575       9.521       9.470       9.426    
        9.391       9.359       9.310       9.237       9.139       9.028       8.941       8.880       8.831       8.777    
        8.726       8.689       8.639       8.570       8.492       8.367       8.239       8.139       8.022       7.735    
        7.226       6.676       6.284       6.022       5.741       5.376       4.959       4.538       4.244       3.971    
        3.695       3.292       2.808       2.461       2.051       1.493      0.9306      0.5407      0.2720       0.000    
   6    10.00       9.933       9.859       9.799       9.726       9.646       9.581       9.531       9.479       9.439    
        9.406       9.367       9.304       9.218       9.134       9.041       8.948       8.872       8.808       8.745    
        8.701       8.660       8.615       8.541       8.425       8.305       8.211       8.101       7.902       7.485    
        6.914       6.415       6.116       5.922       5.695       5.294       4.844       4.517       4.302       4.066    
        3.802       3.440       2.963       2.532       2.025       1.428      0.8344      0.4755      0.2657       0.000    
   7    10.00       9.914       9.844       9.786       9.716       9.658       9.596       9.545       9.500       9.458    
        9.415       9.358       9.281       9.198       9.122       9.045       8.941       8.838       8.769       8.718    
        8.675       8.630       8.583       8.483       8.363       8.269       8.164       7.983       7.641       7.107    
        6.570       6.182       6.001       5.854       5.563       5.162       4.870       4.591       4.363       4.203    
        3.939       3.566       3.057       2.500       1.876       1.190      0.6993      0.4827      0.2445       0.000    
   8    10.00       9.908       9.844       9.781       9.719       9.667       9.614       9.564       9.521       9.480    
        9.417       9.335       9.254       9.181       9.109       9.014       8.889       8.793       8.740       8.692    
        8.640       8.603       8.524       8.415       8.308       8.195       7.994       7.707       7.234       6.772    
        6.377       6.079       5.945       5.764       5.433       5.128       4.887       4.685       4.507       4.320    
        4.047       3.590       3.002       2.367       1.656       1.074      0.7399      0.4735      0.2182       0.000    
   9    10.00       9.913       9.840       9.778       9.733       9.690       9.638       9.589       9.540       9.492    
        9.411       9.310       9.226       9.151       9.065       8.958       8.845       8.760       8.707       8.655    
        8.609       8.548       8.436       8.335       8.223       8.062       7.768       7.334       6.867       6.539    
        6.231       6.020       5.871       5.629       5.326       5.094       4.926       4.776       4.626       4.423    
        4.086       3.610       2.986       2.278       1.624       1.112      0.7548      0.4697      0.2329       0.000    
  10    10.00       9.911       9.837       9.786       9.746       9.704       9.658       9.615       9.558       9.482    
        9.383       9.281       9.199       9.117       9.025       8.901       8.788       8.720       8.673       8.622    
        8.575       8.471       8.352       8.239       8.082       7.837       7.392       6.925       6.565       6.320    
        6.141       5.972       5.767       5.521       5.270       5.100       4.980       4.857       4.689       4.454    
        4.091       3.572       2.906       2.274       1.758       1.273      0.8086      0.4990      0.2630       0.000    
  11    10.00       9.899       9.842       9.799       9.759       9.722       9.681       9.623       9.541       9.454    
        9.356       9.256       9.176       9.066       8.940       8.832       8.752       8.688       8.642       8.585    
        8.498       8.364       8.191       8.023       7.745       7.378       6.986       6.683       6.399       6.228    
        6.079       5.852       5.624       5.443       5.281       5.162       5.044       4.886       4.687       4.411    
        4.072       3.614       2.943       2.368       1.912       1.448      0.9327      0.4950      0.1988       0.000    
  12    10.00       9.908       9.851       9.806       9.772       9.733       9.688       9.608       9.510       9.422    
        9.328       9.228       9.120       8.987       8.883       8.790       8.706       8.654       8.593       8.505    
        8.332       8.102       7.858       7.606       7.262       6.983       6.784       6.471       6.242       6.113    
        5.956       5.743       5.569       5.420       5.320       5.212       5.072       4.894       4.656       4.369    
        4.035       3.589       2.976       2.464       2.052       1.552      0.9829      0.4693      0.1561       0.000    
  13    10.00       9.928       9.875       9.827       9.783       9.738       9.670       9.572       9.470       9.382    
        9.282       9.181       9.068       8.930       8.811       8.718       8.659       8.591       8.504       8.292    
        7.974       7.696       7.433       7.119       6.853       6.732       6.485       6.202       6.090       5.986    
        5.820       5.641       5.520       5.425       5.346       5.247       5.087       4.865       4.634       4.338    
        4.009       3.556       2.924       2.447       2.066       1.520      0.9158      0.4246      0.1227       0.000    
  14    10.00       9.947       9.899       9.847       9.795       9.725       9.626       9.522       9.430       9.330    
        9.231       9.138       9.002       8.848       8.739       8.666       8.566       8.460       8.249       7.876    
        7.539       7.293       6.949       6.695       6.579       6.444       6.189       6.029       5.915       5.814    
        5.677       5.575       5.508       5.436       5.355       5.255       5.075       4.833       4.586       4.286    
        3.934       3.388       2.793       2.409       1.941       1.416      0.9019      0.3875      9.9766E-02   0.000    
  15    10.00       9.958       9.910       9.857       9.796       9.690       9.568       9.476       9.385       9.289    
        9.213       9.104       8.924       8.755       8.655       8.522       8.388       8.252       7.896       7.461    
        7.186       6.838       6.528       6.436       6.368       6.189       5.987       5.831       5.751       5.681    
        5.605       5.552       5.504       5.445       5.360       5.238       5.030       4.754       4.495       4.219    
        3.839       3.308       2.796       2.279       1.712       1.242      0.7749      0.3410      0.1024       0.000    
  16    10.00       9.969       9.921       9.858       9.762       9.631       9.526       9.452       9.369       9.270    
        9.168       9.010       8.801       8.640       8.494       8.337       8.246       7.968       7.452       7.055    
        6.781       6.443       6.332       6.279       6.148       5.923       5.762       5.693       5.675       5.631    
        5.578       5.537       5.499       5.435       5.333       5.179       4.928       4.680       4.477       4.184    
        3.751       3.179       2.589       2.012       1.530       1.064      0.6596      0.3234      0.1091       0.000    
  17    10.00       9.968       9.917       9.834       9.714       9.583       9.495       9.426       9.334       9.221    
        9.051       8.849       8.662       8.485       8.304       8.154       7.927       7.463       6.987       6.717    
        6.450       6.248       6.162       6.036       5.831       5.665       5.626       5.624       5.617       5.581    
        5.543       5.514       5.479       5.418       5.266       5.056       4.842       4.671       4.480       4.110    
        3.532       2.947       2.382       1.815       1.309      0.8610      0.5524      0.2888      0.1187       0.000    
  18    10.00       9.961       9.901       9.800       9.649       9.543       9.474       9.380       9.273       9.115    
        8.908       8.730       8.542       8.303       8.066       7.816       7.486       7.020       6.669       6.436    
        6.222       6.055       5.923       5.742       5.605       5.565       5.557       5.558       5.542       5.518    
        5.501       5.481       5.441       5.334       5.175       4.999       4.824       4.672       4.403       3.907    
        3.315       2.691       2.085       1.618       1.214      0.8068      0.4744      0.2389      0.1145       0.000    
  19    10.00       9.951       9.885       9.738       9.587       9.525       9.447       9.331       9.198       9.028    
        8.840       8.671       8.398       8.035       7.754       7.499       7.104       6.685       6.452       6.275    
        6.056       5.853       5.708       5.571       5.505       5.493       5.491       5.474       5.449       5.446    
        5.441       5.427       5.366       5.265       5.135       4.967       4.811       4.590       4.127       3.610    
        3.131       2.485       1.908       1.537       1.135      0.7280      0.4285      0.2433      0.1247       0.000    
  20    10.00       9.940       9.828       9.677       9.567       9.500       9.415       9.290       9.142       8.987    
        8.793       8.536       8.127       7.769       7.521       7.208       6.819       6.593       6.382       6.136    
        5.896       5.715       5.565       5.470       5.422       5.399       5.371       5.365       5.352       5.363    
        5.369       5.356       5.293       5.203       5.070       4.927       4.731       4.327       3.827       3.414    
        2.892       2.295       1.863       1.503       1.098      0.6466      0.3746      0.2534      0.1306       0.000    
  21    10.00       9.900       9.780       9.654       9.546       9.475       9.382       9.235       9.088       8.942    
        8.681       8.288       7.874       7.606       7.331       7.004       6.718       6.505       6.251       5.992    
        5.764       5.588       5.457       5.357       5.290       5.239       5.223       5.231       5.235       5.254    
        5.276       5.252       5.189       5.107       4.977       4.821       4.513       4.089       3.695       3.194    
        2.698       2.226       1.861       1.497      0.9263      0.5245      0.3795      0.2864      0.1374       0.000    
  22    10.00       9.874       9.730       9.617       9.531       9.445       9.314       9.178       9.047       8.845    
        8.511       8.067       7.742       7.501       7.194       6.860       6.588       6.364       6.133       5.890    
        5.664       5.477       5.303       5.148       5.060       5.040       5.057       5.070       5.108       5.132    
        5.156       5.130       5.080       4.995       4.868       4.713       4.402       3.998       3.482       2.997    
        2.637       2.261       1.821       1.211      0.7246      0.5235      0.3982      0.2653      9.8177E-02   0.000    
  23    10.00       9.837       9.696       9.607       9.516       9.387       9.245       9.144       8.979       8.725    
        8.336       7.959       7.725       7.425       7.027       6.697       6.484       6.303       6.088       5.827    
        5.589       5.371       5.121       4.829       4.616       4.659       4.794       4.882       4.962       5.017    
        5.039       5.029       4.986       4.906       4.789       4.616       4.303       3.803       3.287       2.945    
        2.614       2.139       1.505      0.9793      0.7141      0.5346      0.3827      0.2260      8.9970E-02   0.000    
  24    10.00       9.811       9.710       9.603       9.473       9.339       9.230       9.117       8.959       8.624    
        8.261       7.982       7.717       7.317       6.882       6.645       6.466       6.288       6.045       5.799    
        5.587       5.311       4.911       4.359       3.686       3.957       4.363       4.646       4.814       4.900    
        4.945       4.942       4.913       4.827       4.693       4.474       4.076       3.603       3.217       2.861    
        2.455       1.923       1.355      0.9515      0.7166      0.5216      0.3497      0.2452      0.1204       0.000    
  25    10.00       9.833       9.729       9.594       9.459       9.336       9.228       9.124       8.887       8.564    
        8.284       8.002       7.655       7.217       6.894       6.682       6.478       6.264       6.042       5.830    
        5.587       5.322       4.752       3.702       1.839       3.219       3.965       4.409       4.684       4.828    
        4.884       4.888       4.849       4.729       4.546       4.244       3.867       3.494       3.164       2.747    
        2.256       1.748       1.267      0.9448      0.7438      0.5428      0.3689      0.2570      0.1600       0.000    
  26    10.00       9.856       9.755       9.613       9.468       9.356       9.241       9.089       8.855       8.630    
        8.367       7.981       7.558       7.204       6.960       6.751       6.515       6.251       6.036       5.859    
        5.656       5.394       4.900       4.126       3.270       3.622       4.068       4.399       4.652       4.811    
        4.859       4.852       4.782       4.637       4.432       4.145       3.727       3.371       3.059       2.550    
        1.992       1.544       1.257       1.032      0.8026      0.5864      0.4025      0.2794      0.1633       0.000    
  27    10.00       9.885       9.761       9.634       9.509       9.377       9.249       9.095       8.903       8.696    
        8.366       7.934       7.562       7.267       7.061       6.821       6.514       6.239       6.070       5.924    
        5.765       5.522       5.146       4.686       4.219       4.181       4.348       4.557       4.745       4.841    
        4.857       4.835       4.751       4.590       4.350       3.959       3.563       3.265       2.786       2.245    
        1.808       1.518       1.301       1.104      0.8779      0.6405      0.4375      0.3078      0.1942       0.000    
  28    10.00       9.893       9.792       9.677       9.555       9.415       9.274       9.125       8.958       8.718    
        8.333       7.957       7.633       7.343       7.123       6.889       6.637       6.370       6.130       5.978    
        5.850       5.676       5.432       5.095       4.806       4.632       4.661       4.794       4.859       4.888    
        4.874       4.831       4.726       4.518       4.198       3.788       3.440       3.017       2.512       2.123    
        1.808       1.561       1.348       1.144      0.9231      0.6993      0.4967      0.3507      0.2005       0.000    
  29    10.00       9.901       9.802       9.712       9.593       9.467       9.329       9.177       8.994       8.674    
        8.316       7.998       7.690       7.446       7.196       6.947       6.718       6.502       6.270       6.068    
        5.930       5.796       5.633       5.430       5.154       5.015       4.993       4.997       5.001       4.966    
        4.910       4.820       4.691       4.422       4.021       3.650       3.289       2.842       2.433       2.145    
        1.888       1.617       1.375       1.179      0.9798      0.7404      0.5254      0.3669      0.2035       0.000    
  30    10.00       9.915       9.833       9.754       9.648       9.524       9.400       9.227       8.982       8.692    
        8.330       7.987       7.736       7.491       7.256       7.030       6.844       6.643       6.416       6.201    
        6.030       5.916       5.776       5.638       5.485       5.361       5.317       5.220       5.160       5.066    
        4.943       4.785       4.593       4.305       3.979       3.623       3.234       2.810       2.496       2.231    
        1.924       1.652       1.441       1.217      0.9796      0.7672      0.5607      0.3900      0.2192       0.000    
  31    10.00       9.933       9.865       9.791       9.712       9.612       9.472       9.259       8.981       8.675    
        8.329       8.022       7.792       7.554       7.335       7.128       6.941       6.784       6.556       6.340    
        6.183       6.059       5.950       5.844       5.768       5.654       5.530       5.423       5.292       5.145    
        4.949       4.735       4.531       4.286       3.970       3.590       3.190       2.836       2.610       2.358    
        2.018       1.717       1.476       1.248       1.027      0.8084      0.5949      0.4109      0.2128       0.000    
  32    10.00       9.942       9.894       9.830       9.755       9.661       9.514       9.271       9.019       8.730    
        8.373       8.088       7.871       7.627       7.397       7.228       7.064       6.878       6.695       6.481    
        6.319       6.189       6.093       6.007       5.918       5.824       5.678       5.547       5.392       5.190    
        4.956       4.730       4.505       4.265       3.953       3.607       3.292       2.986       2.727       2.440    
        2.125       1.826       1.571       1.308       1.067      0.8807      0.6573      0.4040      0.1805       0.000    
  33    10.00       9.951       9.914       9.859       9.784       9.685       9.495       9.257       9.054       8.796    
        8.470       8.199       7.945       7.674       7.473       7.328       7.186       6.994       6.792       6.612    
        6.431       6.301       6.186       6.089       6.007       5.914       5.775       5.603       5.443       5.246    
        5.007       4.791       4.551       4.246       3.950       3.638       3.381       3.140       2.849       2.531    
        2.258       1.973       1.692       1.419       1.164      0.9560      0.7053      0.4073      0.1771       0.000    
  34    10.00       9.960       9.932       9.886       9.789       9.646       9.472       9.307       9.097       8.843    
        8.567       8.274       7.994       7.731       7.563       7.443       7.290       7.108       6.883       6.711    
        6.552       6.391       6.267       6.167       6.087       5.978       5.821       5.657       5.480       5.256    
        5.047       4.860       4.630       4.330       4.027       3.734       3.489       3.253       2.949       2.658    
        2.410       2.136       1.828       1.555       1.296       1.057      0.7564      0.4595      0.2409       0.000    
  35    10.00       9.967       9.932       9.868       9.751       9.612       9.488       9.346       9.179       8.906    
        8.607       8.319       8.039       7.819       7.665       7.539       7.378       7.188       6.973       6.770    
        6.624       6.476       6.350       6.254       6.165       6.053       5.878       5.681       5.476       5.245    
        5.083       4.898       4.658       4.437       4.178       3.866       3.590       3.388       3.095       2.780    
        2.541       2.259       1.950       1.681       1.410       1.148      0.8682      0.5755      0.2847       0.000    
  36    10.00       9.960       9.906       9.837       9.728       9.600       9.497       9.378       9.198       8.940    
        8.619       8.319       8.118       7.945       7.794       7.635       7.447       7.259       7.037       6.789    
        6.629       6.517       6.404       6.323       6.232       6.094       5.904       5.688       5.440       5.222    
        5.077       4.926       4.712       4.495       4.277       3.996       3.716       3.495       3.232       2.887    
        2.623       2.309       2.000       1.794       1.531       1.238      0.9582      0.6522      0.3191       0.000    
  37    10.00       9.940       9.883       9.814       9.709       9.598       9.483       9.370       9.209       8.912    
        8.582       8.351       8.229       8.065       7.879       7.723       7.501       7.272       7.006       6.760    
        6.640       6.547       6.438       6.354       6.250       6.088       5.896       5.627       5.396       5.241    
        5.105       4.937       4.725       4.551       4.326       4.059       3.839       3.625       3.329       2.949    
        2.603       2.307       2.092       1.878       1.615       1.337       1.056      0.7194      0.3951       0.000    
  38    10.00       9.932       9.860       9.789       9.698       9.594       9.474       9.353       9.171       8.896    
        8.648       8.462       8.307       8.160       7.965       7.723       7.481       7.226       6.935       6.760    
        6.662       6.545       6.443       6.369       6.257       6.069       5.793       5.536       5.405       5.282    
        5.138       4.958       4.762       4.588       4.367       4.121       3.939       3.722       3.344       2.926    
        2.625       2.377       2.162       1.941       1.708       1.426       1.146      0.8320      0.4112       0.000    
  39    10.00       9.914       9.844       9.781       9.695       9.578       9.453       9.330       9.160       8.936    
        8.742       8.600       8.427       8.232       7.966       7.673       7.403       7.112       6.900       6.780    
        6.645       6.513       6.435       6.365       6.260       6.017       5.729       5.561       5.437       5.310    
        5.148       4.976       4.786       4.610       4.442       4.238       3.998       3.735       3.362       2.971    
        2.653       2.397       2.228       2.042       1.780       1.500       1.217      0.8660      0.4058       0.000    
  40    10.00       9.906       9.840       9.776       9.689       9.570       9.449       9.328       9.177       8.991    
        8.832       8.709       8.508       8.217       7.893       7.600       7.315       7.063       6.903       6.763    
        6.610       6.492       6.421       6.340       6.202       5.988       5.784       5.610       5.468       5.337    
        5.178       4.991       4.809       4.661       4.511       4.305       4.028       3.752       3.373       2.954    
        2.655       2.452       2.266       2.107       1.831       1.525       1.266      0.8682      0.4043       0.000    
  41    10.00       9.915       9.839       9.764       9.671       9.578       9.477       9.365       9.217       9.048    
        8.897       8.754       8.507       8.170       7.836       7.561       7.280       7.035       6.880       6.732    
        6.579       6.474       6.399       6.303       6.158       5.992       5.851       5.681       5.503       5.348    
        5.195       5.024       4.849       4.719       4.560       4.354       4.076       3.695       3.259       2.936    
        2.719       2.522       2.329       2.109       1.821       1.528       1.306      0.9248      0.4194       0.000    
  42    10.00       9.916       9.830       9.765       9.696       9.611       9.504       9.377       9.252       9.124    
        8.938       8.701       8.417       8.098       7.789       7.537       7.262       7.020       6.856       6.689    
        6.547       6.454       6.372       6.283       6.148       6.029       5.908       5.717       5.518       5.378    
        5.250       5.062       4.874       4.747       4.600       4.380       4.039       3.589       3.189       2.948    
        2.784       2.608       2.363       2.069       1.794       1.564       1.334      0.9753      0.4813       0.000    
  43    10.00       9.909       9.838       9.781       9.727       9.646       9.541       9.422       9.285       9.095    
        8.863       8.621       8.354       8.023       7.743       7.510       7.264       7.022       6.814       6.659    
        6.528       6.435       6.363       6.289       6.172       6.047       5.925       5.728       5.554       5.449    
        5.293       5.090       4.908       4.777       4.605       4.320       3.926       3.499       3.207       3.022    
        2.848       2.646       2.344       2.043       1.799       1.578       1.379      0.9890      0.4520       0.000    
  44    10.00       9.909       9.847       9.797       9.732       9.672       9.586       9.431       9.233       9.017    
        8.823       8.577       8.258       7.981       7.755       7.489       7.219       6.968       6.761       6.624    
        6.527       6.444       6.370       6.292       6.191       6.063       5.899       5.735       5.616       5.491    
        5.351       5.173       4.964       4.765       4.555       4.236       3.822       3.471       3.245       3.066    
        2.890       2.651       2.359       2.098       1.838       1.600       1.357      0.8930      0.4107       0.000    
  45    10.00       9.919       9.862       9.796       9.734       9.682       9.546       9.364       9.165       8.979    
        8.820       8.495       8.163       7.961       7.721       7.428       7.136       6.903       6.734       6.623    
        6.547       6.468       6.386       6.294       6.182       6.057       5.918       5.790       5.686       5.555    
        5.394       5.210       4.994       4.743       4.491       4.148       3.759       3.482       3.310       3.126    
        2.891       2.617       2.367       2.130       1.899       1.662       1.268      0.7937      0.3994       0.000    
  46    10.00       9.935       9.874       9.797       9.726       9.625       9.478       9.341       9.174       8.976    
        8.713       8.406       8.139       7.883       7.630       7.346       7.075       6.901       6.762       6.654    
        6.577       6.501       6.398       6.282       6.174       6.068       5.957       5.840       5.734       5.620    
        5.474       5.280       5.035       4.737       4.378       4.020       3.733       3.536       3.356       3.164    
        2.887       2.595       2.346       2.158       1.937       1.629       1.180      0.7582      0.3738       0.000    
  47    10.00       9.947       9.889       9.814       9.693       9.560       9.434       9.327       9.175       8.914    
        8.600       8.318       8.087       7.873       7.603       7.295       7.055       6.890       6.779       6.688    
        6.606       6.517       6.409       6.287       6.181       6.096       6.004       5.888       5.767       5.654    
        5.527       5.365       5.040       4.623       4.272       4.014       3.773       3.604       3.444       3.179    
        2.841       2.531       2.306       2.176       1.932       1.555       1.116      0.7316      0.3696       0.000    
  48    10.00       9.953       9.893       9.782       9.658       9.543       9.417       9.308       9.154       8.861    
        8.519       8.282       8.093       7.831       7.517       7.239       7.058       6.892       6.781       6.711    
        6.628       6.521       6.405       6.293       6.205       6.137       6.055       5.926       5.786       5.664    
        5.531       5.336       4.999       4.652       4.338       4.054       3.838       3.665       3.462       3.125    
        2.761       2.522       2.343       2.113       1.792       1.457       1.082      0.7370      0.3902       0.000    
  49    10.00       9.950       9.861       9.753       9.660       9.537       9.414       9.299       9.106       8.795    
        8.489       8.263       8.027       7.762       7.525       7.266       7.015       6.860       6.792       6.727    
        6.648       6.526       6.390       6.293       6.225       6.175       6.081       5.933       5.785       5.675    
        5.531       5.274       4.976       4.731       4.468       4.155       3.876       3.662       3.423       3.061    
        2.768       2.558       2.311       1.979       1.694       1.392       1.064      0.7493      0.3816       0.000    
  50    10.00       9.938       9.839       9.741       9.666       9.551       9.415       9.269       9.060       8.815    
        8.505       8.202       7.956       7.745       7.554       7.264       6.978       6.861       6.801       6.738    
        6.662       6.524       6.379       6.291       6.237       6.191       6.086       5.927       5.786       5.673    
        5.516       5.246       5.017       4.806       4.522       4.211       3.929       3.645       3.300       2.980    
        2.824       2.604       2.243       1.908       1.670       1.382       1.096      0.7320      0.3007       0.000    

 HEAD WILL BE SAVED ON UNIT   51 AT END OF TIME STEP  90, STRESS PERIOD    2

 DRAWDOWN WILL BE SAVED ON UNIT   52 AT END OF TIME STEP  90, STRESS PERIOD    2
1
  VOLUMETRIC BUDGET FOR ENTIRE MODEL AT END OF TIME STEP 90 IN STRESS PERIOD   2
  ------------------------------------------------------------------------------

     CUMULATIVE VOLUMES      L**3       RATES FOR THIS TIME STEP      L**3/T
     ------------------                 ------------------------

           IN:                                      IN:
           ---                                      ---
             STORAGE =       41231.3203               STORAGE =         380.6224
       CONSTANT HEAD =       52669.4180         CONSTANT HEAD =         648.4791
               WELLS =           0.0000                 WELLS =           0.0000

            TOTAL IN =       93900.7344              TOTAL IN =        1029.1016

          OUT:                                     OUT:
          ----                                     ----
             STORAGE =       9.3745E-03               STORAGE =           0.0000
       CONSTANT HEAD =       48900.7070         CONSTANT HEAD =         529.1016
               WELLS =       45000.0000                 WELLS =         500.0000

           TOTAL OUT =       93900.7188             TOTAL OUT =        1029.1016

            IN - OUT =       1.5625E-02              IN - OUT =           0.0000

 PERCENT DISCREPANCY =           0.00     PERCENT DISCREPANCY =           0.00






          TIME SUMMARY AT END OF TIME STEP  90 IN STRESS PERIOD    2
                    SECONDS     MINUTES      HOURS       DAYS        YEARS
                    -----------------------------------------------------------
   TIME STEP LENGTH  86400.      1440.0      24.000      1.0000     2.73785E-03
 STRESS PERIOD TIME 7.77600E+06 1.29600E+05  2160.0      90.000     0.24641    
         TOTAL TIME 7.86240E+06 1.31040E+05  2184.0      91.000     0.24914    
1
 
 SOLVING FOR HEAD 

 OUTPUT CONTROL FOR STRESS PERIOD    2   TIME STEP  91
    SAVE HEAD FOR ALL LAYERS
    SAVE DRAWDOWN FOR ALL LAYERS
    SAVE BUDGET
    PRINT HEAD FOR ALL LAYERS
    PRINT BUDGET
 UBDSV1 SAVING "         STORAGE" ON UNIT  53 AT TIME STEP 91, STRESS PERIOD   2
 UBDSV2 SAVING "   CONSTANT HEAD" ON UNIT  53 AT TIME STEP 91, STRESS PERIOD   2
 UBDSV1 SAVING "FLOW RIGHT FACE " ON UNIT  53 AT TIME STEP 91, STRESS PERIOD   2
 UBDSV1 SAVING "FLOW FRONT FACE " ON UNIT  53 AT TIME STEP 91, STRESS PERIOD   2
1
              HEAD IN LAYER   1 AT END OF TIME STEP  91 IN STRESS PERIOD    2
  ---------------------------------------------------------------------------

            1           2           3           4           5           6           7           8           9          10
           11          12          13          14          15          16          17          18          19          20
           21          22          23          24          25          26          27          28          29          30
           31          32          33          34          35          36          37          38          39          40
           41          42          43          44          45          46          47          48          49          50
 ........................................................................................................................
   1    10.00       9.951       9.883       9.816       9.760       9.692       9.625       9.555       9.461       9.384    
        9.340       9.294       9.244       9.195       9.116       9.029       8.935       8.862       8.829       8.793    
        8.749       8.711       8.673       8.626       8.560       8.447       8.311       8.180       8.030       7.881    
        7.671       7.337       6.945       6.533       6.072       5.646       5.287       4.954       4.501       4.010    
        3.593       3.182       2.616       2.080       1.704       1.329       1.013      0.8096      0.5370       0.000    
   2    10.00       9.950       9.890       9.822       9.763       9.700       9.625       9.533       9.443       9.384    
        9.344       9.303       9.265       9.204       9.113       9.023       8.937       8.865       8.829       8.789    
        8.743       8.715       8.684       8.634       8.558       8.450       8.312       8.175       8.035       7.887    
        7.659       7.315       6.901       6.434       5.969       5.560       5.239       4.913       4.453       3.992    
        3.571       3.078       2.568       2.144       1.772       1.422       1.063      0.7689      0.4105       0.000    
   3    10.00       9.945       9.887       9.826       9.765       9.693       9.600       9.513       9.455       9.402    
        9.355       9.319       9.282       9.224       9.133       9.021       8.930       8.870       8.826       8.785    
        8.747       8.716       8.686       8.622       8.540       8.430       8.299       8.196       8.047       7.871    
        7.576       7.174       6.731       6.277       5.851       5.473       5.188       4.851       4.352       3.904    
        3.555       3.108       2.641       2.235       1.849       1.497       1.072      0.6595      0.2901       0.000    
   4    10.00       9.950       9.891       9.823       9.749       9.665       9.576       9.511       9.463       9.412    
        9.371       9.341       9.299       9.236       9.153       9.030       8.929       8.874       8.826       8.787    
        8.744       8.707       8.668       8.600       8.516       8.409       8.281       8.163       8.046       7.825    
        7.441       6.946       6.470       6.123       5.809       5.446       5.081       4.652       4.231       3.907    
        3.599       3.206       2.740       2.341       1.938       1.511       1.022      0.5854      0.2727       0.000    
   5    10.00       9.946       9.883       9.807       9.729       9.651       9.574       9.519       9.468       9.424    
        9.389       9.357       9.308       9.234       9.137       9.025       8.938       8.877       8.828       8.774    
        8.723       8.685       8.636       8.566       8.488       8.363       8.235       8.135       8.018       7.731    
        7.221       6.671       6.279       6.017       5.736       5.371       4.955       4.533       4.239       3.967    
        3.691       3.288       2.805       2.458       2.049       1.491      0.9297      0.5402      0.2718       0.000    
   6    10.00       9.933       9.859       9.798       9.726       9.645       9.580       9.530       9.478       9.437    
        9.405       9.365       9.302       9.216       9.131       9.039       8.945       8.869       8.805       8.742    
        8.698       8.657       8.611       8.537       8.421       8.301       8.207       8.097       7.898       7.480    
        6.909       6.409       6.110       5.917       5.690       5.289       4.839       4.512       4.297       4.062    
        3.798       3.436       2.959       2.529       2.023       1.426      0.8336      0.4750      0.2654       0.000    
   7    10.00       9.914       9.844       9.785       9.715       9.657       9.595       9.543       9.499       9.456    
        9.413       9.357       9.279       9.195       9.119       9.043       8.938       8.835       8.766       8.715    
        8.671       8.627       8.579       8.479       8.359       8.264       8.160       7.979       7.636       7.102    
        6.564       6.176       5.995       5.848       5.557       5.157       4.865       4.586       4.358       4.199    
        3.934       3.563       3.053       2.497       1.874       1.188      0.6986      0.4822      0.2442       0.000    
   8    10.00       9.908       9.843       9.781       9.718       9.666       9.613       9.563       9.520       9.479    
        9.416       9.333       9.252       9.178       9.106       9.011       8.886       8.789       8.737       8.688    
        8.637       8.599       8.520       8.411       8.304       8.191       7.990       7.702       7.228       6.766    
        6.371       6.073       5.939       5.758       5.426       5.122       4.882       4.679       4.501       4.315    
        4.043       3.586       2.999       2.364       1.654       1.073      0.7392      0.4730      0.2180       0.000    
   9    10.00       9.912       9.839       9.777       9.733       9.689       9.637       9.588       9.538       9.491    
        9.410       9.308       9.224       9.149       9.062       8.955       8.842       8.757       8.703       8.652    
        8.606       8.544       8.432       8.330       8.219       8.058       7.763       7.328       6.861       6.533    
        6.224       6.013       5.864       5.622       5.320       5.088       4.920       4.770       4.620       4.418    
        4.081       3.606       2.983       2.275       1.622       1.110      0.7541      0.4692      0.2327       0.000    
  10    10.00       9.911       9.836       9.785       9.745       9.703       9.657       9.614       9.556       9.480    
        9.381       9.279       9.196       9.114       9.022       8.898       8.785       8.716       8.670       8.618    
        8.571       8.467       8.347       8.235       8.077       7.831       7.386       6.919       6.558       6.313    
        6.134       5.965       5.760       5.514       5.263       5.094       4.974       4.851       4.683       4.449    
        4.087       3.567       2.903       2.272       1.756       1.272      0.8077      0.4985      0.2628       0.000    
  11    10.00       9.899       9.841       9.799       9.758       9.721       9.680       9.622       9.539       9.453    
        9.354       9.254       9.174       9.063       8.937       8.828       8.748       8.685       8.638       8.582    
        8.494       8.360       8.186       8.018       7.739       7.372       6.979       6.676       6.392       6.221    
        6.071       5.845       5.617       5.436       5.274       5.156       5.038       4.880       4.681       4.406    
        4.067       3.610       2.939       2.366       1.910       1.446      0.9318      0.4946      0.1986       0.000    
  12    10.00       9.907       9.851       9.805       9.771       9.732       9.687       9.607       9.509       9.420    
        9.326       9.225       9.117       8.984       8.880       8.786       8.702       8.650       8.589       8.501    
        8.327       8.097       7.852       7.600       7.255       6.976       6.777       6.463       6.234       6.105    
        5.948       5.736       5.561       5.412       5.312       5.205       5.065       4.887       4.650       4.363    
        4.030       3.585       2.972       2.461       2.050       1.551      0.9819      0.4688      0.1559       0.000    
  13    10.00       9.928       9.875       9.826       9.782       9.737       9.669       9.570       9.468       9.380    
        9.280       9.179       9.065       8.927       8.807       8.714       8.655       8.587       8.499       8.287    
        7.969       7.690       7.427       7.112       6.845       6.724       6.477       6.193       6.081       5.978    
        5.812       5.633       5.512       5.417       5.338       5.239       5.080       4.858       4.627       4.333    
        4.004       3.552       2.921       2.444       2.064       1.518      0.9149      0.4242      0.1226       0.000    
  14    10.00       9.947       9.899       9.847       9.794       9.724       9.625       9.520       9.428       9.328    
        9.229       9.135       8.999       8.844       8.735       8.662       8.562       8.455       8.244       7.870    
        7.532       7.286       6.941       6.687       6.571       6.435       6.181       6.021       5.906       5.805    
        5.668       5.566       5.499       5.428       5.347       5.248       5.068       4.826       4.579       4.280    
        3.929       3.383       2.790       2.406       1.939       1.414      0.9010      0.3871      9.9666E-02   0.000    
  15    10.00       9.958       9.909       9.857       9.795       9.689       9.566       9.475       9.383       9.286    
        9.211       9.101       8.921       8.751       8.651       8.518       8.383       8.247       7.890       7.454    
        7.178       6.830       6.519       6.427       6.359       6.180       5.978       5.822       5.742       5.672    
        5.596       5.543       5.495       5.437       5.352       5.230       5.022       4.747       4.488       4.213    
        3.834       3.304       2.792       2.276       1.710       1.241      0.7741      0.3406      0.1023       0.000    
  16    10.00       9.969       9.921       9.858       9.761       9.630       9.525       9.450       9.367       9.267    
        9.165       9.006       8.797       8.635       8.489       8.331       8.240       7.962       7.445       7.047    
        6.773       6.434       6.323       6.270       6.139       5.913       5.752       5.683       5.665       5.622    
        5.569       5.528       5.490       5.427       5.324       5.171       4.920       4.672       4.470       4.178    
        3.746       3.175       2.586       2.010       1.528       1.063      0.6589      0.3230      0.1090       0.000    
  17    10.00       9.968       9.917       9.834       9.713       9.581       9.493       9.424       9.331       9.218    
        9.047       8.845       8.657       8.480       8.299       8.148       7.921       7.456       6.979       6.708    
        6.441       6.239       6.152       6.026       5.821       5.655       5.616       5.615       5.607       5.572    
        5.534       5.505       5.470       5.409       5.257       5.048       4.834       4.663       4.473       4.104    
        3.527       2.943       2.379       1.813       1.307      0.8600      0.5518      0.2885      0.1186       0.000    
  18    10.00       9.961       9.900       9.800       9.648       9.542       9.472       9.378       9.270       9.112    
        8.904       8.725       8.537       8.297       8.060       7.809       7.479       7.012       6.660       6.426    
        6.213       6.045       5.913       5.732       5.595       5.555       5.547       5.548       5.532       5.508    
        5.491       5.471       5.431       5.324       5.166       4.991       4.816       4.664       4.396       3.901    
        3.310       2.687       2.082       1.616       1.213      0.8059      0.4739      0.2386      0.1144       0.000    
  19    10.00       9.951       9.884       9.737       9.586       9.523       9.445       9.328       9.195       9.024    
        8.836       8.667       8.392       8.028       7.747       7.492       7.095       6.676       6.443       6.265    
        6.046       5.843       5.698       5.560       5.495       5.483       5.481       5.464       5.439       5.436    
        5.431       5.417       5.357       5.255       5.126       4.958       4.802       4.582       4.121       3.605    
        3.126       2.482       1.906       1.535       1.134      0.7272      0.4280      0.2430      0.1245       0.000    
  20    10.00       9.940       9.827       9.676       9.566       9.498       9.413       9.287       9.138       8.984    
        8.789       8.531       8.120       7.762       7.514       7.200       6.810       6.584       6.372       6.126    
        5.886       5.705       5.555       5.459       5.412       5.389       5.360       5.355       5.342       5.353    
        5.358       5.346       5.283       5.193       5.061       4.918       4.723       4.320       3.821       3.409    
        2.888       2.292       1.860       1.501       1.097      0.6458      0.3742      0.2531      0.1305       0.000    
  21    10.00       9.900       9.779       9.652       9.544       9.472       9.380       9.232       9.084       8.938    
        8.676       8.282       7.867       7.599       7.323       6.995       6.709       6.495       6.241       5.983    
        5.754       5.578       5.447       5.346       5.280       5.229       5.212       5.221       5.225       5.243    
        5.265       5.242       5.179       5.097       4.967       4.811       4.505       4.082       3.689       3.189    
        2.694       2.223       1.859       1.495      0.9252      0.5239      0.3791      0.2861      0.1372       0.000    
  22    10.00       9.873       9.728       9.615       9.529       9.442       9.311       9.175       9.044       8.840    
        8.505       8.061       7.734       7.493       7.186       6.851       6.578       6.354       6.124       5.880    
        5.654       5.467       5.293       5.137       5.049       5.029       5.046       5.059       5.097       5.121    
        5.146       5.119       5.069       4.984       4.858       4.704       4.393       3.990       3.477       2.992    
        2.633       2.257       1.819       1.209      0.7238      0.5230      0.3978      0.2650      9.8077E-02   0.000    
  23    10.00       9.836       9.695       9.605       9.514       9.385       9.242       9.140       8.975       8.720    
        8.330       7.953       7.718       7.417       7.019       6.688       6.475       6.293       6.079       5.817    
        5.578       5.361       5.111       4.819       4.605       4.648       4.783       4.871       4.951       5.005    
        5.028       5.018       4.975       4.896       4.779       4.607       4.294       3.797       3.282       2.940    
        2.610       2.136       1.503      0.9782      0.7134      0.5340      0.3823      0.2258      8.9883E-02   0.000    
  24    10.00       9.811       9.709       9.601       9.471       9.336       9.227       9.114       8.955       8.619    
        8.255       7.975       7.710       7.308       6.873       6.636       6.457       6.278       6.035       5.788    
        5.577       5.300       4.900       4.348       3.675       3.945       4.352       4.635       4.802       4.888    
        4.934       4.931       4.902       4.816       4.683       4.465       4.069       3.597       3.212       2.857    
        2.451       1.921       1.353      0.9505      0.7159      0.5211      0.3494      0.2450      0.1203       0.000    
  25    10.00       9.832       9.728       9.593       9.457       9.333       9.225       9.121       8.883       8.558    
        8.278       7.995       7.648       7.208       6.886       6.672       6.469       6.254       6.032       5.820    
        5.576       5.311       4.741       3.691       1.827       3.208       3.954       4.397       4.672       4.817    
        4.872       4.877       4.838       4.719       4.536       4.235       3.859       3.488       3.159       2.743    
        2.253       1.745       1.266      0.9438      0.7431      0.5423      0.3685      0.2568      0.1599       0.000    
  26    10.00       9.855       9.754       9.611       9.466       9.354       9.239       9.085       8.851       8.625    
        8.361       7.975       7.551       7.196       6.951       6.742       6.506       6.242       6.026       5.849    
        5.646       5.384       4.890       4.115       3.258       3.610       4.057       4.387       4.641       4.799    
        4.848       4.841       4.771       4.627       4.423       4.136       3.720       3.366       3.054       2.546    
        1.990       1.542       1.255       1.031      0.8019      0.5859      0.4021      0.2792      0.1632       0.000    
  27    10.00       9.885       9.760       9.632       9.507       9.375       9.246       9.092       8.899       8.692    
        8.360       7.927       7.555       7.259       7.053       6.812       6.504       6.229       6.060       5.914    
        5.755       5.511       5.135       4.676       4.208       4.170       4.337       4.545       4.733       4.829    
        4.846       4.824       4.740       4.580       4.341       3.951       3.557       3.260       2.782       2.242    
        1.806       1.516       1.300       1.103      0.8771      0.6399      0.4372      0.3075      0.1940       0.000    
  28    10.00       9.893       9.791       9.675       9.553       9.413       9.271       9.122       8.955       8.713    
        8.328       7.951       7.626       7.335       7.115       6.881       6.628       6.360       6.120       5.968    
        5.840       5.666       5.422       5.085       4.795       4.621       4.650       4.782       4.847       4.876    
        4.863       4.820       4.716       4.509       4.189       3.782       3.434       3.012       2.508       2.121    
        1.806       1.559       1.347       1.143      0.9223      0.6988      0.4963      0.3504      0.2003       0.000    
  29    10.00       9.901       9.801       9.711       9.591       9.465       9.327       9.174       8.990       8.669    
        8.311       7.992       7.683       7.438       7.188       6.939       6.709       6.493       6.261       6.058    
        5.920       5.786       5.623       5.420       5.143       5.004       4.982       4.986       4.989       4.955    
        4.899       4.809       4.681       4.414       4.014       3.644       3.284       2.838       2.431       2.143    
        1.886       1.615       1.374       1.178      0.9790      0.7398      0.5250      0.3666      0.2033       0.000    
  30    10.00       9.914       9.832       9.753       9.646       9.522       9.398       9.224       8.978       8.687    
        8.325       7.980       7.729       7.484       7.248       7.022       6.835       6.634       6.407       6.192    
        6.020       5.906       5.766       5.628       5.474       5.350       5.306       5.209       5.149       5.055    
        4.932       4.776       4.585       4.298       3.973       3.618       3.230       2.807       2.493       2.228    
        1.922       1.650       1.440       1.216      0.9788      0.7666      0.5602      0.3897      0.2190       0.000    
  31    10.00       9.932       9.865       9.790       9.711       9.611       9.471       9.256       8.978       8.670    
        8.324       8.016       7.786       7.547       7.328       7.120       6.933       6.775       6.547       6.331    
        6.173       6.050       5.940       5.834       5.758       5.644       5.519       5.413       5.282       5.135    
        4.940       4.727       4.523       4.280       3.965       3.585       3.187       2.833       2.608       2.356    
        2.016       1.716       1.475       1.247       1.026      0.8078      0.5945      0.4106      0.2127       0.000    
  32    10.00       9.942       9.894       9.829       9.754       9.660       9.512       9.268       9.016       8.725    
        8.368       8.082       7.865       7.620       7.390       7.220       7.056       6.869       6.687       6.472    
        6.310       6.179       6.084       5.998       5.908       5.815       5.668       5.537       5.382       5.181    
        4.948       4.723       4.499       4.259       3.948       3.603       3.288       2.983       2.724       2.438    
        2.124       1.825       1.570       1.307       1.066      0.8801      0.6569      0.4038      0.1804       0.000    
  33    10.00       9.951       9.914       9.859       9.783       9.684       9.493       9.255       9.051       8.792    
        8.465       8.194       7.939       7.668       7.466       7.321       7.178       6.987       6.784       6.603    
        6.423       6.292       6.177       6.080       5.998       5.905       5.765       5.594       5.434       5.239    
        5.000       4.785       4.545       4.241       3.945       3.635       3.378       3.137       2.846       2.530    
        2.256       1.972       1.691       1.418       1.163      0.9555      0.7049      0.4071      0.1770       0.000    
  34    10.00       9.960       9.931       9.886       9.788       9.644       9.470       9.305       9.094       8.839    
        8.563       8.269       7.988       7.725       7.556       7.436       7.282       7.101       6.875       6.703    
        6.544       6.383       6.259       6.159       6.078       5.969       5.813       5.649       5.472       5.249    
        5.040       4.854       4.625       4.326       4.023       3.731       3.486       3.250       2.947       2.656    
        2.409       2.135       1.827       1.554       1.296       1.056      0.7561      0.4593      0.2408       0.000    
  35    10.00       9.967       9.932       9.868       9.750       9.611       9.487       9.344       9.176       8.903    
        8.603       8.314       8.033       7.813       7.659       7.532       7.372       7.181       6.966       6.762    
        6.616       6.469       6.342       6.246       6.157       6.046       5.870       5.674       5.469       5.239    
        5.078       4.893       4.653       4.433       4.175       3.863       3.588       3.386       3.093       2.779    
        2.539       2.258       1.949       1.680       1.410       1.147      0.8679      0.5753      0.2846       0.000    
  36    10.00       9.960       9.906       9.836       9.727       9.599       9.496       9.376       9.196       8.937    
        8.615       8.314       8.113       7.940       7.789       7.629       7.441       7.252       7.031       6.782    
        6.622       6.510       6.397       6.316       6.225       6.087       5.898       5.681       5.435       5.218    
        5.073       4.923       4.708       4.492       4.274       3.993       3.714       3.493       3.230       2.885    
        2.622       2.308       1.999       1.793       1.531       1.238      0.9578      0.6520      0.3190       0.000    
  37    10.00       9.939       9.882       9.814       9.708       9.597       9.481       9.368       9.207       8.910    
        8.579       8.346       8.225       8.060       7.874       7.717       7.495       7.266       7.000       6.754    
        6.634       6.541       6.432       6.347       6.244       6.082       5.890       5.622       5.392       5.237    
        5.102       4.934       4.722       4.548       4.323       4.057       3.837       3.623       3.327       2.948    
        2.602       2.307       2.091       1.877       1.614       1.336       1.056      0.7192      0.3949       0.000    
  38    10.00       9.932       9.860       9.789       9.697       9.593       9.473       9.351       9.169       8.893    
        8.645       8.458       8.303       8.156       7.960       7.718       7.475       7.221       6.929       6.754    
        6.656       6.540       6.438       6.363       6.252       6.064       5.788       5.533       5.401       5.279    
        5.135       4.955       4.759       4.585       4.365       4.119       3.937       3.720       3.343       2.925    
        2.624       2.376       2.162       1.941       1.707       1.425       1.146      0.8318      0.4111       0.000    
  39    10.00       9.914       9.844       9.781       9.694       9.577       9.452       9.328       9.159       8.933    
        8.740       8.597       8.424       8.228       7.961       7.668       7.398       7.108       6.896       6.775    
        6.640       6.509       6.430       6.360       6.256       6.013       5.726       5.558       5.434       5.307    
        5.145       4.973       4.783       4.608       4.439       4.236       3.996       3.733       3.360       2.970    
        2.652       2.396       2.227       2.042       1.779       1.500       1.216      0.8657      0.4057       0.000    
  40    10.00       9.906       9.839       9.776       9.688       9.570       9.448       9.327       9.175       8.989    
        8.830       8.706       8.504       8.214       7.889       7.596       7.311       7.059       6.898       6.759    
        6.606       6.488       6.417       6.336       6.198       5.985       5.781       5.607       5.465       5.334    
        5.175       4.988       4.807       4.659       4.509       4.303       4.026       3.751       3.371       2.952    
        2.654       2.451       2.265       2.106       1.830       1.524       1.265      0.8680      0.4041       0.000    
  41    10.00       9.915       9.839       9.764       9.670       9.577       9.476       9.364       9.215       9.046    
        8.895       8.751       8.504       8.167       7.832       7.557       7.276       7.031       6.877       6.728    
        6.576       6.470       6.395       6.299       6.154       5.989       5.848       5.678       5.500       5.346    
        5.193       5.022       4.847       4.716       4.558       4.352       4.075       3.693       3.257       2.935    
        2.718       2.521       2.328       2.108       1.821       1.528       1.306      0.9245      0.4192       0.000    
  42    10.00       9.916       9.830       9.764       9.696       9.610       9.503       9.376       9.251       9.122    
        8.936       8.699       8.415       8.095       7.786       7.534       7.259       7.017       6.853       6.686    
        6.543       6.450       6.369       6.280       6.145       6.026       5.905       5.714       5.515       5.375    
        5.247       5.060       4.872       4.745       4.598       4.378       4.037       3.587       3.188       2.947    
        2.783       2.607       2.362       2.069       1.793       1.564       1.333      0.9750      0.4811       0.000    
  43    10.00       9.909       9.838       9.781       9.727       9.645       9.541       9.421       9.284       9.093    
        8.861       8.619       8.352       8.020       7.740       7.508       7.261       7.019       6.811       6.656    
        6.525       6.432       6.360       6.286       6.169       6.044       5.922       5.725       5.551       5.447    
        5.291       5.088       4.905       4.775       4.603       4.318       3.924       3.497       3.206       3.021    
        2.847       2.645       2.344       2.042       1.799       1.578       1.379      0.9887      0.4519       0.000    
  44    10.00       9.909       9.847       9.796       9.732       9.672       9.586       9.430       9.232       9.016    
        8.822       8.576       8.256       7.978       7.753       7.487       7.217       6.965       6.758       6.621    
        6.524       6.442       6.367       6.290       6.189       6.061       5.897       5.732       5.614       5.488    
        5.349       5.171       4.962       4.763       4.553       4.234       3.821       3.469       3.243       3.065    
        2.889       2.650       2.359       2.098       1.837       1.600       1.357      0.8927      0.4106       0.000    
  45    10.00       9.919       9.862       9.796       9.734       9.681       9.545       9.363       9.164       8.978    
        8.819       8.493       8.161       7.959       7.719       7.426       7.134       6.900       6.731       6.620    
        6.544       6.466       6.384       6.292       6.180       6.055       5.915       5.788       5.683       5.553    
        5.391       5.208       4.992       4.741       4.489       4.146       3.758       3.481       3.309       3.125    
        2.890       2.616       2.367       2.129       1.898       1.662       1.267      0.7934      0.3993       0.000    
  46    10.00       9.935       9.874       9.797       9.726       9.624       9.477       9.340       9.174       8.975    
        8.712       8.404       8.137       7.881       7.627       7.344       7.073       6.899       6.759       6.651    
        6.575       6.499       6.395       6.280       6.171       6.065       5.955       5.837       5.732       5.617    
        5.471       5.277       5.033       4.735       4.376       4.019       3.731       3.535       3.355       3.163    
        2.886       2.594       2.345       2.157       1.937       1.629       1.180      0.7580      0.3737       0.000    
  47    10.00       9.947       9.889       9.814       9.693       9.559       9.433       9.326       9.174       8.913    
        8.599       8.316       8.085       7.871       7.601       7.293       7.053       6.888       6.776       6.686    
        6.603       6.515       6.407       6.285       6.178       6.094       6.002       5.885       5.764       5.652    
        5.525       5.362       5.038       4.621       4.270       4.013       3.771       3.602       3.443       3.178    
        2.840       2.530       2.305       2.175       1.931       1.554       1.116      0.7314      0.3695       0.000    
  48    10.00       9.953       9.893       9.782       9.658       9.542       9.416       9.307       9.154       8.860    
        8.517       8.281       8.091       7.829       7.515       7.237       7.056       6.890       6.779       6.709    
        6.625       6.519       6.402       6.290       6.202       6.135       6.052       5.924       5.783       5.662    
        5.529       5.334       4.997       4.650       4.336       4.052       3.837       3.664       3.461       3.124    
        2.760       2.522       2.342       2.112       1.791       1.457       1.081      0.7368      0.3901       0.000    
  49    10.00       9.950       9.861       9.753       9.660       9.536       9.413       9.298       9.105       8.794    
        8.488       8.262       8.025       7.760       7.523       7.264       7.012       6.858       6.790       6.725    
        6.645       6.523       6.388       6.291       6.223       6.173       6.078       5.930       5.783       5.673    
        5.528       5.272       4.974       4.729       4.466       4.153       3.875       3.661       3.422       3.060    
        2.767       2.558       2.310       1.978       1.694       1.392       1.064      0.7491      0.3815       0.000    
  50    10.00       9.938       9.839       9.741       9.666       9.550       9.414       9.268       9.059       8.814    
        8.504       8.200       7.954       7.743       7.552       7.261       6.975       6.858       6.799       6.735    
        6.659       6.522       6.377       6.289       6.235       6.189       6.083       5.924       5.783       5.671    
        5.514       5.244       5.015       4.804       4.521       4.209       3.927       3.644       3.299       2.979    
        2.824       2.603       2.242       1.908       1.669       1.381       1.096      0.7318      0.3006       0.000    

 HEAD WILL BE SAVED ON UNIT   51 AT END OF TIME STEP  91, STRESS PERIOD    2

 DRAWDOWN WILL BE SAVED ON UNIT   52 AT END OF TIME STEP  91, STRESS PERIOD    2
1
  VOLUMETRIC BUDGET FOR ENTIRE MODEL AT END OF TIME STEP 91 IN STRESS PERIOD   2
  ------------------------------------------------------------------------------

     CUMULATIVE VOLUMES      L**3       RATES FOR THIS TIME STEP      L**3/T
     ------------------                 ------------------------

           IN:                                      IN:
           ---                                      ---
             STORAGE =       41609.9609               STORAGE =         378.6407
       CONSTANT HEAD =       53319.5312         CONSTANT HEAD =         650.1151
               WELLS =           0.0000                 WELLS =           0.0000

            TOTAL IN =       94929.4922              TOTAL IN =        1028.7557

          OUT:                                     OUT:
          ----                                     ----
             STORAGE =       9.3745E-03               STORAGE =           0.0000
       CONSTANT HEAD =       49429.4609         CONSTANT HEAD =         528.7557
               WELLS =       45500.0000                 WELLS =         500.0000

           TOTAL OUT =       94929.4688             TOTAL OUT =        1028.7557

            IN - OUT =       2.3438E-02              IN - OUT =           0.0000

 PERCENT DISCREPANCY =           0.00     PERCENT DISCREPANCY =           0.00






          TIME SUMMARY AT END OF TIME STEP  91 IN STRESS PERIOD    2
                    SECONDS     MINUTES      HOURS       DAYS        YEARS
                    -----------------------------------------------------------
   TIME STEP LENGTH  86400.      1440.0      24.000      1.0000     2.73785E-03
 STRESS PERIOD TIME 7.86240E+06 1.31040E+05  2184.0      91.000     0.24914    
         TOTAL TIME 7.94880E+06 1.32480E+05  2208.0      92.000     0.25188    
1
 
 SOLVING FOR HEAD 

 OUTPUT CONTROL FOR STRESS PERIOD    2   TIME STEP  92
    SAVE HEAD FOR ALL LAYERS
    SAVE DRAWDOWN FOR ALL LAYERS
    SAVE BUDGET
    PRINT HEAD FOR ALL LAYERS
    PRINT BUDGET
 UBDSV1 SAVING "         STORAGE" ON UNIT  53 AT TIME STEP 92, STRESS PERIOD   2
 UBDSV2 SAVING "   CONSTANT HEAD" ON UNIT  53 AT TIME STEP 92, STRESS PERIOD   2
 UBDSV1 SAVING "FLOW RIGHT FACE " ON UNIT  53 AT TIME STEP 92, STRESS PERIOD   2
 UBDSV1 SAVING "FLOW FRONT FACE " ON UNIT  53 AT TIME STEP 92, STRESS PERIOD   2
1
              HEAD IN LAYER   1 AT END OF TIME STEP  92 IN STRESS PERIOD    2
  ---------------------------------------------------------------------------

            1           2           3           4           5           6           7           8           9          10
           11          12          13          14          15          16          17          18          19          20
           21          22          23          24          25          26          27          28          29          30
           31          32          33          34          35          36          37          38          39          40
           41          42          43          44          45          46          47          48          49          50
 ........................................................................................................................
   1    10.00       9.950       9.883       9.815       9.760       9.691       9.624       9.554       9.460       9.383    
        9.338       9.292       9.242       9.193       9.114       9.027       8.933       8.859       8.826       8.790    
        8.746       8.708       8.670       8.622       8.557       8.443       8.307       8.176       8.026       7.877    
        7.667       7.333       6.941       6.529       6.067       5.642       5.283       4.950       4.497       4.006    
        3.590       3.179       2.614       2.078       1.703       1.327       1.012      0.8089      0.5365       0.000    
   2    10.00       9.950       9.889       9.822       9.762       9.699       9.624       9.532       9.442       9.383    
        9.342       9.301       9.263       9.201       9.110       9.021       8.934       8.862       8.826       8.785    
        8.740       8.712       8.681       8.630       8.555       8.446       8.309       8.172       8.031       7.883    
        7.655       7.310       6.897       6.430       5.965       5.555       5.234       4.909       4.449       3.988    
        3.568       3.075       2.565       2.142       1.770       1.421       1.062      0.7681      0.4102       0.000    
   3    10.00       9.945       9.887       9.825       9.765       9.692       9.599       9.511       9.454       9.400    
        9.353       9.317       9.280       9.221       9.130       9.018       8.927       8.868       8.823       8.782    
        8.744       8.713       8.682       8.618       8.537       8.426       8.296       8.192       8.043       7.867    
        7.572       7.170       6.726       6.272       5.847       5.469       5.184       4.847       4.349       3.900    
        3.551       3.105       2.638       2.233       1.848       1.495       1.071      0.6589      0.2898       0.000    
   4    10.00       9.950       9.890       9.823       9.748       9.664       9.575       9.510       9.461       9.410    
        9.369       9.340       9.297       9.234       9.150       9.028       8.926       8.871       8.823       8.784    
        8.741       8.704       8.665       8.596       8.513       8.405       8.277       8.159       8.042       7.821    
        7.437       6.941       6.465       6.118       5.804       5.441       5.076       4.648       4.227       3.904    
        3.596       3.203       2.738       2.339       1.936       1.510       1.021      0.5848      0.2724       0.000    
   5    10.00       9.946       9.883       9.806       9.728       9.650       9.573       9.518       9.467       9.423    
        9.387       9.356       9.306       9.232       9.134       9.022       8.935       8.874       8.825       8.770    
        8.720       8.682       8.632       8.563       8.484       8.359       8.231       8.131       8.014       7.726    
        7.216       6.666       6.274       6.012       5.730       5.367       4.950       4.529       4.235       3.963    
        3.688       3.285       2.802       2.456       2.047       1.490      0.9288      0.5396      0.2715       0.000    
   6    10.00       9.933       9.858       9.798       9.725       9.644       9.578       9.529       9.476       9.436    
        9.403       9.364       9.300       9.213       9.129       9.036       8.942       8.866       8.802       8.739    
        8.695       8.653       8.608       8.534       8.417       8.297       8.203       8.092       7.893       7.476    
        6.904       6.404       6.104       5.911       5.684       5.283       4.834       4.507       4.293       4.058    
        3.794       3.433       2.956       2.527       2.021       1.425      0.8327      0.4745      0.2652       0.000    
   7    10.00       9.913       9.843       9.785       9.714       9.656       9.594       9.542       9.497       9.455    
        9.411       9.355       9.277       9.193       9.117       9.040       8.935       8.832       8.763       8.712    
        8.668       8.623       8.576       8.475       8.355       8.260       8.155       7.974       7.631       7.096    
        6.558       6.170       5.989       5.842       5.551       5.151       4.859       4.581       4.353       4.194    
        3.930       3.559       3.050       2.495       1.872       1.187      0.6979      0.4817      0.2440       0.000    
   8    10.00       9.908       9.843       9.780       9.717       9.665       9.612       9.562       9.519       9.477    
        9.414       9.331       9.250       9.176       9.104       9.008       8.883       8.786       8.734       8.685    
        8.633       8.596       8.516       8.407       8.300       8.186       7.985       7.697       7.222       6.760    
        6.365       6.066       5.932       5.752       5.420       5.116       4.876       4.674       4.496       4.310    
        4.038       3.582       2.996       2.362       1.652       1.072      0.7384      0.4725      0.2177       0.000    
   9    10.00       9.912       9.839       9.777       9.732       9.688       9.636       9.586       9.537       9.489    
        9.408       9.306       9.222       9.146       9.059       8.952       8.839       8.753       8.700       8.648    
        8.602       8.540       8.428       8.326       8.214       8.053       7.758       7.323       6.855       6.526    
        6.218       6.007       5.857       5.616       5.313       5.082       4.914       4.765       4.615       4.413    
        4.076       3.602       2.980       2.273       1.620       1.109      0.7533      0.4688      0.2325       0.000    
  10    10.00       9.910       9.836       9.785       9.745       9.702       9.656       9.613       9.555       9.478    
        9.380       9.277       9.194       9.111       9.019       8.894       8.781       8.713       8.666       8.615    
        8.567       8.463       8.343       8.230       8.073       7.826       7.380       6.912       6.551       6.306    
        6.127       5.958       5.753       5.507       5.256       5.087       4.967       4.845       4.678       4.443    
        4.082       3.563       2.899       2.269       1.754       1.270      0.8069      0.4980      0.2625       0.000    
  11    10.00       9.898       9.841       9.798       9.758       9.720       9.679       9.621       9.538       9.451    
        9.352       9.251       9.171       9.061       8.934       8.825       8.745       8.681       8.635       8.578    
        8.490       8.356       8.181       8.013       7.734       7.365       6.972       6.669       6.384       6.214    
        6.064       5.838       5.609       5.428       5.267       5.149       5.031       4.874       4.675       4.400    
        4.062       3.605       2.936       2.363       1.908       1.445      0.9308      0.4941      0.1984       0.000    
  12    10.00       9.907       9.850       9.805       9.771       9.732       9.686       9.606       9.507       9.418    
        9.324       9.223       9.115       8.981       8.876       8.783       8.698       8.646       8.585       8.497    
        8.323       8.092       7.847       7.594       7.248       6.968       6.769       6.455       6.226       6.098    
        5.940       5.728       5.553       5.405       5.305       5.198       5.059       4.881       4.644       4.357    
        4.025       3.580       2.968       2.459       2.048       1.549      0.9810      0.4684      0.1558       0.000    
  13    10.00       9.927       9.875       9.825       9.782       9.736       9.668       9.569       9.466       9.378    
        9.278       9.176       9.062       8.923       8.804       8.711       8.651       8.583       8.495       8.283    
        7.963       7.684       7.420       7.105       6.838       6.716       6.468       6.185       6.073       5.970    
        5.804       5.625       5.504       5.410       5.330       5.232       5.073       4.852       4.621       4.327    
        3.998       3.547       2.917       2.442       2.061       1.516      0.9140      0.4238      0.1225       0.000    
  14    10.00       9.947       9.899       9.846       9.794       9.723       9.624       9.519       9.427       9.326    
        9.226       9.132       8.996       8.840       8.731       8.658       8.558       8.451       8.239       7.864    
        7.526       7.279       6.934       6.679       6.562       6.427       6.172       6.012       5.897       5.796    
        5.660       5.558       5.491       5.420       5.339       5.240       5.060       4.819       4.573       4.274    
        3.923       3.379       2.786       2.403       1.936       1.412      0.9001      0.3867      9.9565E-02   0.000    
  15    10.00       9.958       9.909       9.856       9.794       9.688       9.565       9.473       9.381       9.284    
        9.208       9.098       8.917       8.747       8.647       8.513       8.378       8.242       7.884       7.447    
        7.171       6.821       6.511       6.419       6.351       6.171       5.969       5.813       5.733       5.663    
        5.587       5.534       5.487       5.428       5.344       5.222       5.015       4.740       4.482       4.207    
        3.828       3.299       2.789       2.273       1.708       1.239      0.7732      0.3403      0.1021       0.000    
  16    10.00       9.969       9.921       9.857       9.760       9.629       9.523       9.448       9.365       9.265    
        9.163       9.003       8.794       8.631       8.484       8.326       8.235       7.956       7.438       7.039    
        6.764       6.425       6.314       6.261       6.130       5.904       5.742       5.673       5.656       5.612    
        5.560       5.519       5.481       5.418       5.316       5.163       4.912       4.665       4.464       4.171    
        3.741       3.170       2.582       2.007       1.526       1.062      0.6582      0.3227      0.1089       0.000    
  17    10.00       9.968       9.917       9.833       9.712       9.580       9.491       9.422       9.329       9.216    
        9.044       8.841       8.653       8.475       8.294       8.143       7.915       7.449       6.971       6.699    
        6.432       6.230       6.143       6.016       5.811       5.645       5.606       5.605       5.597       5.562    
        5.524       5.495       5.461       5.400       5.249       5.040       4.826       4.656       4.466       4.098    
        3.522       2.939       2.376       1.811       1.306      0.8590      0.5512      0.2882      0.1185       0.000    
  18    10.00       9.960       9.900       9.799       9.646       9.540       9.470       9.375       9.268       9.109    
        8.900       8.721       8.532       8.292       8.054       7.803       7.472       7.004       6.651       6.417    
        6.203       6.035       5.903       5.722       5.585       5.545       5.537       5.538       5.522       5.498    
        5.481       5.462       5.422       5.315       5.157       4.982       4.808       4.656       4.389       3.895    
        3.305       2.684       2.079       1.614       1.211      0.8050      0.4734      0.2384      0.1143       0.000    
  19    10.00       9.951       9.884       9.736       9.584       9.521       9.443       9.325       9.192       9.021    
        8.831       8.662       8.387       8.022       7.741       7.484       7.087       6.667       6.434       6.256    
        6.036       5.833       5.688       5.550       5.485       5.473       5.471       5.454       5.429       5.426    
        5.421       5.407       5.347       5.246       5.117       4.950       4.794       4.575       4.114       3.599    
        3.122       2.478       1.903       1.533       1.132      0.7263      0.4275      0.2428      0.1244       0.000    
  20    10.00       9.940       9.827       9.675       9.564       9.496       9.410       9.284       9.135       8.980    
        8.785       8.526       8.114       7.755       7.506       7.192       6.801       6.575       6.363       6.117    
        5.876       5.695       5.545       5.449       5.402       5.379       5.350       5.344       5.332       5.342    
        5.348       5.336       5.273       5.183       5.052       4.909       4.715       4.313       3.815       3.403    
        2.883       2.289       1.858       1.500       1.095      0.6451      0.3738      0.2529      0.1303       0.000    
  21    10.00       9.900       9.778       9.651       9.542       9.470       9.377       9.229       9.081       8.934    
        8.671       8.276       7.860       7.591       7.315       6.987       6.700       6.486       6.232       5.973    
        5.744       5.567       5.437       5.336       5.269       5.219       5.202       5.210       5.214       5.233    
        5.255       5.231       5.169       5.087       4.957       4.802       4.496       4.075       3.683       3.184    
        2.690       2.220       1.856       1.494      0.9241      0.5233      0.3787      0.2858      0.1371       0.000    
  22    10.00       9.873       9.727       9.613       9.527       9.440       9.309       9.171       9.040       8.836    
        8.500       8.054       7.727       7.485       7.177       6.842       6.569       6.345       6.114       5.870    
        5.643       5.457       5.282       5.127       5.039       5.019       5.035       5.049       5.087       5.111    
        5.135       5.108       5.059       4.974       4.848       4.695       4.385       3.983       3.471       2.987    
        2.629       2.254       1.816       1.208      0.7230      0.5224      0.3973      0.2647      9.7975E-02   0.000    
  23    10.00       9.835       9.693       9.604       9.512       9.382       9.239       9.137       8.971       8.716    
        8.324       7.946       7.711       7.409       7.010       6.679       6.465       6.284       6.069       5.807    
        5.568       5.350       5.100       4.808       4.595       4.637       4.772       4.861       4.940       4.994    
        5.017       5.007       4.964       4.885       4.769       4.597       4.286       3.790       3.276       2.936    
        2.607       2.133       1.502      0.9772      0.7126      0.5335      0.3819      0.2255      8.9795E-02   0.000    
  24    10.00       9.810       9.707       9.600       9.469       9.333       9.224       9.110       8.951       8.614    
        8.249       7.969       7.702       7.300       6.864       6.627       6.447       6.269       6.025       5.778    
        5.566       5.290       4.890       4.337       3.664       3.934       4.341       4.623       4.791       4.877    
        4.922       4.920       4.891       4.805       4.673       4.456       4.061       3.591       3.207       2.853    
        2.448       1.918       1.352      0.9495      0.7152      0.5206      0.3491      0.2447      0.1202       0.000    
  25    10.00       9.832       9.727       9.591       9.455       9.331       9.222       9.117       8.879       8.553    
        8.272       7.989       7.640       7.200       6.877       6.663       6.459       6.245       6.022       5.810    
        5.566       5.301       4.731       3.680       1.816       3.197       3.942       4.386       4.661       4.805    
        4.861       4.866       4.827       4.709       4.526       4.227       3.852       3.482       3.154       2.739    
        2.250       1.743       1.264      0.9429      0.7423      0.5417      0.3682      0.2565      0.1597       0.000    
  26    10.00       9.854       9.753       9.610       9.464       9.351       9.236       9.082       8.847       8.620    
        8.356       7.968       7.543       7.187       6.943       6.733       6.496       6.232       6.017       5.839    
        5.636       5.373       4.879       4.104       3.247       3.599       4.046       4.376       4.629       4.788    
        4.836       4.830       4.760       4.616       4.413       4.128       3.714       3.360       3.049       2.543    
        1.987       1.540       1.254       1.030      0.8012      0.5853      0.4017      0.2789      0.1630       0.000    
  27    10.00       9.884       9.759       9.631       9.505       9.372       9.243       9.089       8.895       8.687    
        8.355       7.920       7.547       7.251       7.044       6.804       6.495       6.220       6.051       5.904    
        5.745       5.501       5.125       4.665       4.197       4.159       4.325       4.534       4.722       4.818    
        4.835       4.813       4.729       4.570       4.332       3.944       3.551       3.255       2.778       2.239    
        1.804       1.515       1.298       1.102      0.8764      0.6394      0.4368      0.3072      0.1939       0.000    
  28    10.00       9.893       9.790       9.674       9.551       9.411       9.268       9.119       8.951       8.709    
        8.322       7.944       7.619       7.327       7.107       6.872       6.619       6.351       6.110       5.958    
        5.830       5.656       5.411       5.074       4.784       4.610       4.639       4.771       4.836       4.865    
        4.852       4.809       4.705       4.499       4.181       3.775       3.429       3.008       2.505       2.118    
        1.804       1.558       1.346       1.141      0.9215      0.6982      0.4959      0.3502      0.2002       0.000    
  29    10.00       9.901       9.801       9.710       9.589       9.463       9.325       9.171       8.987       8.665    
        8.305       7.985       7.676       7.430       7.180       6.930       6.700       6.484       6.251       6.049    
        5.910       5.776       5.613       5.410       5.132       4.993       4.971       4.975       4.978       4.944    
        4.888       4.799       4.671       4.405       4.007       3.638       3.280       2.834       2.428       2.140    
        1.884       1.614       1.373       1.177      0.9782      0.7392      0.5246      0.3663      0.2032       0.000    
  30    10.00       9.914       9.831       9.752       9.645       9.521       9.396       9.221       8.975       8.683    
        8.320       7.974       7.722       7.477       7.241       7.013       6.827       6.625       6.397       6.182    
        6.011       5.896       5.756       5.618       5.464       5.340       5.296       5.198       5.138       5.044    
        4.922       4.766       4.576       4.291       3.967       3.613       3.226       2.803       2.491       2.226    
        1.921       1.649       1.438       1.215      0.9781      0.7660      0.5598      0.3895      0.2189       0.000    
  31    10.00       9.932       9.864       9.789       9.710       9.609       9.469       9.254       8.974       8.666    
        8.319       8.010       7.779       7.540       7.320       7.112       6.925       6.767       6.539       6.321    
        6.164       6.040       5.931       5.824       5.748       5.634       5.509       5.402       5.271       5.125    
        4.931       4.719       4.516       4.273       3.959       3.581       3.183       2.830       2.605       2.354    
        2.014       1.714       1.474       1.246       1.026      0.8072      0.5941      0.4103      0.2125       0.000    
  32    10.00       9.942       9.893       9.829       9.753       9.659       9.510       9.266       9.013       8.721    
        8.363       8.076       7.859       7.614       7.382       7.212       7.048       6.861       6.678       6.463    
        6.301       6.170       6.074       5.988       5.899       5.805       5.658       5.527       5.373       5.173    
        4.940       4.715       4.492       4.253       3.943       3.599       3.285       2.980       2.722       2.436    
        2.122       1.824       1.569       1.306       1.065      0.8796      0.6565      0.4035      0.1803       0.000    
  33    10.00       9.951       9.913       9.858       9.783       9.683       9.492       9.252       9.048       8.788    
        8.461       8.188       7.933       7.661       7.459       7.313       7.171       6.979       6.776       6.595    
        6.414       6.283       6.168       6.071       5.989       5.896       5.756       5.586       5.426       5.231    
        4.993       4.778       4.539       4.235       3.941       3.631       3.374       3.134       2.844       2.528    
        2.255       1.971       1.690       1.417       1.163      0.9549      0.7045      0.4069      0.1770       0.000    
  34    10.00       9.960       9.931       9.885       9.788       9.643       9.468       9.302       9.091       8.836    
        8.558       8.264       7.982       7.718       7.550       7.429       7.275       7.093       6.867       6.695    
        6.536       6.375       6.250       6.150       6.070       5.961       5.805       5.641       5.464       5.242    
        5.034       4.849       4.619       4.321       4.019       3.727       3.483       3.248       2.945       2.654    
        2.408       2.134       1.826       1.554       1.295       1.056      0.7558      0.4591      0.2407       0.000    
  35    10.00       9.967       9.932       9.867       9.749       9.610       9.485       9.342       9.174       8.899    
        8.598       8.309       8.028       7.807       7.653       7.526       7.365       7.174       6.958       6.755    
        6.609       6.461       6.335       6.238       6.149       6.038       5.863       5.667       5.462       5.234    
        5.073       4.888       4.649       4.429       4.172       3.860       3.585       3.384       3.092       2.777    
        2.538       2.256       1.948       1.679       1.409       1.147      0.8675      0.5751      0.2845       0.000    
  36    10.00       9.960       9.905       9.836       9.726       9.598       9.494       9.374       9.194       8.934    
        8.611       8.310       8.108       7.935       7.783       7.623       7.434       7.245       7.024       6.775    
        6.615       6.504       6.390       6.310       6.218       6.080       5.891       5.675       5.430       5.213    
        5.069       4.919       4.705       4.489       4.271       3.991       3.712       3.491       3.229       2.884    
        2.620       2.307       1.998       1.793       1.530       1.238      0.9575      0.6517      0.3189       0.000    
  37    10.00       9.939       9.882       9.813       9.707       9.596       9.480       9.367       9.205       8.907    
        8.575       8.342       8.220       8.055       7.868       7.712       7.489       7.260       6.994       6.748    
        6.628       6.535       6.426       6.341       6.237       6.076       5.885       5.618       5.388       5.233    
        5.098       4.931       4.719       4.545       4.321       4.055       3.835       3.621       3.325       2.947    
        2.601       2.306       2.090       1.876       1.613       1.336       1.055      0.7189      0.3948       0.000    
  38    10.00       9.932       9.859       9.788       9.697       9.592       9.471       9.349       9.167       8.890    
        8.642       8.455       8.298       8.151       7.955       7.713       7.470       7.215       6.924       6.749    
        6.651       6.535       6.433       6.358       6.247       6.059       5.784       5.529       5.398       5.276    
        5.131       4.952       4.756       4.583       4.363       4.117       3.935       3.719       3.341       2.923    
        2.622       2.375       2.161       1.940       1.707       1.425       1.146      0.8315      0.4110       0.000    
  39    10.00       9.914       9.844       9.780       9.693       9.576       9.451       9.327       9.157       8.931    
        8.737       8.593       8.420       8.224       7.957       7.664       7.393       7.103       6.891       6.770    
        6.635       6.504       6.425       6.355       6.251       6.009       5.722       5.554       5.431       5.304    
        5.142       4.971       4.781       4.605       4.437       4.234       3.994       3.731       3.359       2.969    
        2.651       2.395       2.226       2.041       1.779       1.499       1.216      0.8654      0.4056       0.000    
  40    10.00       9.906       9.839       9.775       9.687       9.569       9.447       9.325       9.174       8.987    
        8.827       8.703       8.501       8.210       7.885       7.592       7.307       7.055       6.894       6.754    
        6.602       6.484       6.413       6.332       6.194       5.981       5.777       5.604       5.462       5.331    
        5.173       4.986       4.805       4.656       4.507       4.301       4.025       3.749       3.370       2.951    
        2.653       2.450       2.264       2.106       1.830       1.524       1.265      0.8677      0.4040       0.000    
  41    10.00       9.915       9.839       9.763       9.670       9.576       9.475       9.362       9.214       9.044    
        8.893       8.749       8.501       8.164       7.829       7.554       7.272       7.028       6.873       6.724    
        6.572       6.467       6.392       6.296       6.151       5.986       5.845       5.675       5.497       5.343    
        5.190       5.019       4.844       4.714       4.555       4.350       4.073       3.692       3.256       2.933    
        2.717       2.520       2.328       2.107       1.820       1.527       1.305      0.9242      0.4191       0.000    
  42    10.00       9.916       9.830       9.764       9.695       9.609       9.502       9.375       9.250       9.121    
        8.935       8.697       8.412       8.092       7.783       7.531       7.256       7.014       6.850       6.682    
        6.540       6.447       6.366       6.277       6.142       6.024       5.903       5.711       5.513       5.373    
        5.245       5.058       4.869       4.743       4.596       4.376       4.036       3.586       3.186       2.946    
        2.782       2.607       2.361       2.068       1.792       1.563       1.333      0.9747      0.4810       0.000    
  43    10.00       9.909       9.837       9.781       9.726       9.645       9.540       9.420       9.283       9.092    
        8.860       8.617       8.350       8.018       7.738       7.505       7.258       7.016       6.808       6.653    
        6.522       6.429       6.357       6.283       6.167       6.042       5.920       5.723       5.549       5.444    
        5.288       5.086       4.903       4.773       4.601       4.316       3.923       3.496       3.204       3.020    
        2.846       2.644       2.343       2.042       1.798       1.577       1.379      0.9884      0.4517       0.000    
  44    10.00       9.909       9.847       9.796       9.732       9.671       9.585       9.429       9.231       9.015    
        8.820       8.574       8.254       7.976       7.750       7.484       7.214       6.962       6.755       6.619    
        6.521       6.439       6.364       6.287       6.186       6.058       5.894       5.730       5.611       5.486    
        5.346       5.169       4.960       4.761       4.551       4.233       3.819       3.468       3.242       3.064    
        2.888       2.649       2.358       2.097       1.836       1.599       1.356      0.8924      0.4104       0.000    
  45    10.00       9.919       9.861       9.796       9.734       9.681       9.544       9.362       9.163       8.977    
        8.817       8.492       8.159       7.957       7.717       7.424       7.131       6.898       6.729       6.617    
        6.542       6.463       6.381       6.289       6.177       6.052       5.913       5.785       5.681       5.551    
        5.389       5.205       4.990       4.739       4.487       4.145       3.756       3.479       3.308       3.123    
        2.889       2.615       2.366       2.128       1.897       1.661       1.267      0.7931      0.3992       0.000    
  46    10.00       9.935       9.873       9.797       9.726       9.624       9.477       9.339       9.173       8.973    
        8.711       8.403       8.136       7.879       7.625       7.342       7.070       6.896       6.757       6.649    
        6.572       6.496       6.393       6.277       6.169       6.063       5.952       5.835       5.729       5.615    
        5.469       5.275       5.030       4.733       4.374       4.017       3.730       3.534       3.354       3.162    
        2.885       2.593       2.345       2.157       1.936       1.628       1.180      0.7577      0.3736       0.000    
  47    10.00       9.947       9.889       9.813       9.693       9.559       9.433       9.325       9.173       8.912    
        8.598       8.315       8.083       7.869       7.599       7.290       7.050       6.885       6.774       6.683    
        6.601       6.512       6.404       6.282       6.176       6.091       5.999       5.883       5.762       5.649    
        5.522       5.360       5.036       4.619       4.268       4.011       3.770       3.601       3.442       3.177    
        2.839       2.530       2.304       2.174       1.930       1.554       1.116      0.7311      0.3694       0.000    
  48    10.00       9.953       9.893       9.781       9.657       9.542       9.415       9.306       9.153       8.859    
        8.516       8.279       8.089       7.828       7.513       7.234       7.054       6.887       6.777       6.706    
        6.623       6.516       6.400       6.288       6.200       6.132       6.050       5.921       5.781       5.660    
        5.527       5.332       4.995       4.648       4.335       4.051       3.835       3.662       3.460       3.123    
        2.759       2.521       2.341       2.111       1.791       1.456       1.081      0.7366      0.3900       0.000    
  49    10.00       9.950       9.861       9.753       9.660       9.536       9.412       9.298       9.104       8.793    
        8.487       8.260       8.023       7.759       7.521       7.261       7.010       6.856       6.788       6.722    
        6.643       6.521       6.385       6.288       6.220       6.170       6.076       5.928       5.780       5.670    
        5.526       5.270       4.972       4.727       4.464       4.151       3.873       3.659       3.421       3.059    
        2.766       2.557       2.310       1.977       1.693       1.392       1.063      0.7489      0.3814       0.000    
  50    10.00       9.937       9.839       9.740       9.665       9.550       9.413       9.267       9.058       8.812    
        8.502       8.199       7.952       7.741       7.550       7.259       6.973       6.856       6.796       6.733    
        6.657       6.519       6.374       6.286       6.232       6.186       6.081       5.922       5.781       5.669    
        5.511       5.242       5.013       4.802       4.519       4.208       3.926       3.642       3.298       2.978    
        2.823       2.603       2.241       1.907       1.669       1.381       1.096      0.7316      0.3005       0.000    

 HEAD WILL BE SAVED ON UNIT   51 AT END OF TIME STEP  92, STRESS PERIOD    2

 DRAWDOWN WILL BE SAVED ON UNIT   52 AT END OF TIME STEP  92, STRESS PERIOD    2
1
  VOLUMETRIC BUDGET FOR ENTIRE MODEL AT END OF TIME STEP 92 IN STRESS PERIOD   2
  ------------------------------------------------------------------------------

     CUMULATIVE VOLUMES      L**3       RATES FOR THIS TIME STEP      L**3/T
     ------------------                 ------------------------

           IN:                                      IN:
           ---                                      ---
             STORAGE =       41986.6250               STORAGE =         376.6646
       CONSTANT HEAD =       53971.2734         CONSTANT HEAD =         651.7419
               WELLS =           0.0000                 WELLS =           0.0000

            TOTAL IN =       95957.8984              TOTAL IN =        1028.4065

          OUT:                                     OUT:
          ----                                     ----
             STORAGE =       9.3745E-03               STORAGE =           0.0000
       CONSTANT HEAD =       49957.8672         CONSTANT HEAD =         528.4057
               WELLS =       46000.0000                 WELLS =         500.0000

           TOTAL OUT =       95957.8750             TOTAL OUT =        1028.4058

            IN - OUT =       2.3438E-02              IN - OUT =       7.3242E-04

 PERCENT DISCREPANCY =           0.00     PERCENT DISCREPANCY =           0.00






          TIME SUMMARY AT END OF TIME STEP  92 IN STRESS PERIOD    2
                    SECONDS     MINUTES      HOURS       DAYS        YEARS
                    -----------------------------------------------------------
   TIME STEP LENGTH  86400.      1440.0      24.000      1.0000     2.73785E-03
 STRESS PERIOD TIME 7.94880E+06 1.32480E+05  2208.0      92.000     0.25188    
         TOTAL TIME 8.03520E+06 1.33920E+05  2232.0      93.000     0.25462    
1
 
 SOLVING FOR HEAD 

 OUTPUT CONTROL FOR STRESS PERIOD    2   TIME STEP  93
    SAVE HEAD FOR ALL LAYERS
    SAVE DRAWDOWN FOR ALL LAYERS
    SAVE BUDGET
    PRINT HEAD FOR ALL LAYERS
    PRINT BUDGET
 UBDSV1 SAVING "         STORAGE" ON UNIT  53 AT TIME STEP 93, STRESS PERIOD   2
 UBDSV2 SAVING "   CONSTANT HEAD" ON UNIT  53 AT TIME STEP 93, STRESS PERIOD   2
 UBDSV1 SAVING "FLOW RIGHT FACE " ON UNIT  53 AT TIME STEP 93, STRESS PERIOD   2
 UBDSV1 SAVING "FLOW FRONT FACE " ON UNIT  53 AT TIME STEP 93, STRESS PERIOD   2
1
              HEAD IN LAYER   1 AT END OF TIME STEP  93 IN STRESS PERIOD    2
  ---------------------------------------------------------------------------

            1           2           3           4           5           6           7           8           9          10
           11          12          13          14          15          16          17          18          19          20
           21          22          23          24          25          26          27          28          29          30
           31          32          33          34          35          36          37          38          39          40
           41          42          43          44          45          46          47          48          49          50
 ........................................................................................................................
   1    10.00       9.950       9.882       9.815       9.759       9.690       9.623       9.552       9.458       9.381    
        9.336       9.290       9.240       9.191       9.111       9.024       8.930       8.856       8.823       8.787    
        8.742       8.705       8.667       8.619       8.553       8.440       8.304       8.172       8.022       7.873    
        7.663       7.329       6.937       6.525       6.063       5.638       5.278       4.946       4.494       4.003    
        3.587       3.176       2.612       2.076       1.701       1.326       1.011      0.8081      0.5360       0.000    
   2    10.00       9.950       9.889       9.821       9.761       9.698       9.623       9.531       9.440       9.381    
        9.340       9.299       9.261       9.199       9.108       9.018       8.931       8.859       8.823       8.782    
        8.737       8.708       8.678       8.627       8.551       8.443       8.305       8.168       8.027       7.879    
        7.651       7.306       6.893       6.426       5.961       5.551       5.230       4.905       4.446       3.984    
        3.565       3.072       2.563       2.140       1.769       1.419       1.061      0.7674      0.4098       0.000    
   3    10.00       9.945       9.887       9.825       9.764       9.691       9.598       9.510       9.452       9.398    
        9.351       9.315       9.278       9.219       9.128       9.016       8.924       8.865       8.820       8.779    
        8.741       8.710       8.679       8.615       8.533       8.423       8.292       8.188       8.039       7.863    
        7.568       7.166       6.722       6.268       5.842       5.465       5.180       4.843       4.345       3.897    
        3.548       3.102       2.636       2.231       1.846       1.494       1.070      0.6582      0.2895       0.000    
   4    10.00       9.949       9.890       9.822       9.747       9.663       9.574       9.509       9.460       9.409    
        9.368       9.338       9.295       9.232       9.148       9.025       8.923       8.868       8.820       8.781    
        8.738       8.700       8.661       8.593       8.509       8.401       8.273       8.155       8.038       7.817    
        7.432       6.936       6.460       6.113       5.799       5.437       5.072       4.644       4.223       3.900    
        3.592       3.200       2.735       2.337       1.934       1.509       1.020      0.5843      0.2722       0.000    
   5    10.00       9.946       9.883       9.805       9.728       9.649       9.572       9.517       9.465       9.421    
        9.386       9.354       9.304       9.230       9.132       9.020       8.933       8.872       8.822       8.767    
        8.716       8.679       8.629       8.559       8.481       8.356       8.227       8.127       8.010       7.722    
        7.211       6.661       6.268       6.006       5.725       5.362       4.945       4.524       4.231       3.959    
        3.684       3.282       2.800       2.453       2.045       1.488      0.9279      0.5391      0.2712       0.000    
   6    10.00       9.933       9.858       9.797       9.724       9.643       9.577       9.527       9.475       9.434    
        9.401       9.362       9.298       9.211       9.127       9.034       8.939       8.863       8.799       8.736    
        8.691       8.650       8.604       8.530       8.413       8.293       8.198       8.088       7.889       7.471    
        6.898       6.398       6.099       5.905       5.679       5.278       4.829       4.502       4.288       4.053    
        3.790       3.429       2.953       2.524       2.019       1.423      0.8319      0.4741      0.2649       0.000    
   7    10.00       9.913       9.843       9.784       9.714       9.655       9.593       9.541       9.496       9.453    
        9.410       9.353       9.275       9.191       9.114       9.037       8.932       8.828       8.760       8.708    
        8.665       8.620       8.572       8.471       8.351       8.256       8.151       7.970       7.626       7.091    
        6.552       6.164       5.983       5.836       5.545       5.145       4.854       4.576       4.348       4.189    
        3.926       3.555       3.047       2.492       1.870       1.186      0.6972      0.4813      0.2438       0.000    
   8    10.00       9.908       9.843       9.779       9.716       9.665       9.611       9.561       9.517       9.476    
        9.412       9.329       9.248       9.174       9.101       9.006       8.880       8.783       8.730       8.682    
        8.630       8.592       8.512       8.403       8.295       8.182       7.981       7.692       7.217       6.754    
        6.358       6.060       5.926       5.745       5.414       5.110       4.870       4.668       4.491       4.305    
        4.034       3.578       2.992       2.359       1.651       1.071      0.7377      0.4720      0.2175       0.000    
   9    10.00       9.912       9.839       9.776       9.731       9.687       9.635       9.585       9.536       9.488    
        9.406       9.304       9.219       9.144       9.057       8.949       8.836       8.750       8.696       8.645    
        8.598       8.536       8.424       8.322       8.210       8.048       7.753       7.317       6.848       6.519    
        6.211       6.000       5.851       5.609       5.307       5.076       4.908       4.759       4.609       4.408    
        4.071       3.598       2.976       2.271       1.618       1.108      0.7525      0.4683      0.2322       0.000    
  10    10.00       9.910       9.835       9.784       9.744       9.701       9.655       9.612       9.554       9.477    
        9.378       9.274       9.191       9.109       9.016       8.891       8.778       8.709       8.662       8.611    
        8.563       8.459       8.339       8.226       8.068       7.821       7.374       6.905       6.544       6.299    
        6.120       5.951       5.746       5.500       5.250       5.081       4.961       4.839       4.672       4.438    
        4.077       3.559       2.896       2.267       1.752       1.269      0.8061      0.4975      0.2623       0.000    
  11    10.00       9.898       9.840       9.797       9.757       9.719       9.678       9.620       9.537       9.450    
        9.350       9.249       9.169       9.058       8.931       8.822       8.741       8.677       8.631       8.574    
        8.486       8.351       8.177       8.008       7.728       7.359       6.966       6.661       6.377       6.206    
        6.056       5.830       5.602       5.421       5.260       5.142       5.025       4.868       4.669       4.395    
        4.057       3.601       2.933       2.360       1.905       1.443      0.9299      0.4936      0.1982       0.000    
  12    10.00       9.907       9.850       9.804       9.770       9.731       9.685       9.605       9.506       9.416    
        9.321       9.220       9.112       8.977       8.873       8.779       8.695       8.643       8.581       8.492    
        8.318       8.087       7.841       7.588       7.242       6.961       6.762       6.448       6.218       6.090    
        5.932       5.720       5.546       5.397       5.298       5.191       5.052       4.874       4.638       4.352    
        4.020       3.576       2.965       2.456       2.045       1.548      0.9800      0.4679      0.1556       0.000    
  13    10.00       9.927       9.874       9.825       9.781       9.735       9.667       9.567       9.464       9.376    
        9.275       9.173       9.059       8.920       8.800       8.707       8.647       8.579       8.491       8.278    
        7.958       7.678       7.414       7.098       6.830       6.709       6.460       6.177       6.065       5.961    
        5.795       5.617       5.496       5.402       5.323       5.225       5.066       4.845       4.615       4.321    
        3.993       3.543       2.914       2.439       2.059       1.515      0.9131      0.4234      0.1223       0.000    
  14    10.00       9.946       9.898       9.846       9.793       9.722       9.622       9.517       9.425       9.324    
        9.224       9.130       8.993       8.837       8.727       8.654       8.553       8.446       8.234       7.858    
        7.519       7.272       6.926       6.671       6.554       6.418       6.163       6.003       5.888       5.787    
        5.651       5.549       5.483       5.412       5.331       5.232       5.053       4.813       4.566       4.268    
        3.918       3.374       2.783       2.400       1.934       1.411      0.8991      0.3863      9.9463E-02   0.000    
  15    10.00       9.957       9.909       9.856       9.794       9.687       9.563       9.471       9.379       9.281    
        9.206       9.095       8.914       8.743       8.643       8.509       8.374       8.237       7.878       7.440    
        7.163       6.813       6.502       6.410       6.342       6.162       5.960       5.803       5.724       5.653    
        5.578       5.526       5.478       5.420       5.336       5.215       5.007       4.733       4.475       4.201    
        3.823       3.295       2.785       2.270       1.706       1.238      0.7724      0.3399      0.1020       0.000    
  16    10.00       9.968       9.920       9.857       9.759       9.627       9.521       9.446       9.363       9.262    
        9.160       9.000       8.790       8.627       8.480       8.321       8.230       7.951       7.431       7.031    
        6.756       6.416       6.305       6.252       6.121       5.894       5.733       5.664       5.646       5.603    
        5.551       5.510       5.472       5.409       5.307       5.155       4.905       4.658       4.457       4.165    
        3.735       3.166       2.579       2.005       1.525       1.061      0.6574      0.3223      0.1087       0.000    
  17    10.00       9.968       9.917       9.832       9.711       9.578       9.489       9.420       9.326       9.213    
        9.041       8.837       8.649       8.470       8.289       8.137       7.908       7.442       6.962       6.691    
        6.423       6.221       6.134       6.007       5.802       5.636       5.596       5.595       5.588       5.553    
        5.515       5.486       5.452       5.391       5.240       5.032       4.819       4.649       4.459       4.092    
        3.517       2.935       2.373       1.809       1.304      0.8580      0.5506      0.2879      0.1183       0.000    
  18    10.00       9.960       9.900       9.798       9.645       9.538       9.468       9.373       9.265       9.106    
        8.897       8.716       8.527       8.287       8.048       7.796       7.464       6.996       6.642       6.408    
        6.194       6.026       5.894       5.712       5.575       5.535       5.527       5.528       5.512       5.488    
        5.472       5.452       5.413       5.306       5.148       4.974       4.800       4.649       4.382       3.889    
        3.300       2.680       2.077       1.612       1.210      0.8040      0.4728      0.2381      0.1141       0.000    
  19    10.00       9.951       9.883       9.735       9.582       9.519       9.441       9.323       9.189       9.017    
        8.827       8.657       8.382       8.016       7.734       7.477       7.079       6.658       6.424       6.246    
        6.027       5.823       5.678       5.540       5.475       5.463       5.461       5.444       5.419       5.416    
        5.412       5.397       5.338       5.236       5.108       4.941       4.786       4.567       4.108       3.594    
        3.117       2.475       1.901       1.531       1.131      0.7255      0.4270      0.2425      0.1242       0.000    
  20    10.00       9.939       9.826       9.673       9.562       9.494       9.408       9.282       9.132       8.976    
        8.780       8.521       8.108       7.748       7.499       7.184       6.793       6.566       6.354       6.107    
        5.866       5.685       5.535       5.439       5.392       5.369       5.340       5.334       5.321       5.332    
        5.338       5.326       5.263       5.174       5.042       4.901       4.706       4.305       3.809       3.398    
        2.879       2.285       1.855       1.498       1.094      0.6443      0.3734      0.2526      0.1302       0.000    
  21    10.00       9.899       9.777       9.649       9.540       9.468       9.375       9.226       9.077       8.930    
        8.667       8.270       7.853       7.584       7.307       6.978       6.691       6.477       6.222       5.963    
        5.734       5.557       5.427       5.326       5.259       5.208       5.191       5.200       5.204       5.222    
        5.244       5.221       5.159       5.077       4.948       4.793       4.488       4.067       3.677       3.179    
        2.686       2.217       1.854       1.492      0.9230      0.5227      0.3783      0.2855      0.1370       0.000    
  22    10.00       9.872       9.726       9.612       9.525       9.438       9.306       9.168       9.036       8.831    
        8.494       8.048       7.720       7.478       7.169       6.833       6.560       6.335       6.104       5.860    
        5.633       5.447       5.272       5.116       5.028       5.008       5.025       5.038       5.076       5.100    
        5.124       5.098       5.048       4.964       4.839       4.685       4.377       3.976       3.465       2.983    
        2.626       2.251       1.814       1.206      0.7222      0.5219      0.3969      0.2644      9.7873E-02   0.000    
  23    10.00       9.835       9.692       9.602       9.510       9.380       9.236       9.133       8.967       8.711    
        8.319       7.939       7.703       7.401       7.001       6.670       6.456       6.274       6.059       5.797    
        5.558       5.340       5.090       4.797       4.584       4.626       4.762       4.850       4.930       4.984    
        5.006       4.996       4.953       4.875       4.759       4.588       4.278       3.783       3.271       2.931    
        2.603       2.130       1.500      0.9761      0.7118      0.5329      0.3815      0.2253      8.9706E-02   0.000    
  24    10.00       9.809       9.706       9.598       9.467       9.331       9.221       9.107       8.947       8.609    
        8.243       7.962       7.695       7.292       6.856       6.618       6.438       6.259       6.015       5.768    
        5.556       5.280       4.879       4.327       3.653       3.924       4.330       4.612       4.780       4.866    
        4.911       4.909       4.880       4.795       4.664       4.447       4.053       3.584       3.201       2.848    
        2.445       1.916       1.350      0.9485      0.7144      0.5201      0.3487      0.2445      0.1201       0.000    
  25    10.00       9.831       9.726       9.589       9.452       9.328       9.219       9.114       8.875       8.548    
        8.266       7.982       7.633       7.192       6.868       6.654       6.450       6.235       6.013       5.800    
        5.556       5.291       4.720       3.669       1.805       3.186       3.931       4.375       4.650       4.794    
        4.850       4.854       4.817       4.698       4.517       4.218       3.845       3.476       3.148       2.735    
        2.247       1.741       1.263      0.9420      0.7416      0.5412      0.3679      0.2563      0.1596       0.000    
  26    10.00       9.854       9.752       9.608       9.462       9.349       9.233       9.078       8.843       8.615    
        8.350       7.961       7.536       7.179       6.934       6.724       6.487       6.223       6.007       5.829    
        5.626       5.363       4.869       4.094       3.236       3.588       4.034       4.364       4.618       4.776    
        4.825       4.819       4.750       4.606       4.404       4.120       3.707       3.354       3.044       2.539    
        1.985       1.539       1.253       1.029      0.8004      0.5848      0.4014      0.2787      0.1629       0.000    
  27    10.00       9.884       9.758       9.630       9.503       9.370       9.241       9.085       8.891       8.683    
        8.349       7.914       7.540       7.243       7.036       6.795       6.486       6.210       6.041       5.895    
        5.735       5.491       5.114       4.654       4.186       4.148       4.314       4.522       4.710       4.806    
        4.823       4.802       4.719       4.560       4.323       3.936       3.544       3.249       2.774       2.237    
        1.802       1.513       1.297       1.101      0.8756      0.6388      0.4364      0.3070      0.1937       0.000    
  28    10.00       9.892       9.789       9.673       9.549       9.409       9.266       9.116       8.947       8.704    
        8.317       7.938       7.611       7.319       7.099       6.864       6.610       6.342       6.101       5.948    
        5.820       5.646       5.401       5.064       4.773       4.599       4.627       4.759       4.824       4.853    
        4.841       4.798       4.695       4.490       4.173       3.768       3.423       3.004       2.502       2.116    
        1.803       1.556       1.345       1.140      0.9206      0.6976      0.4955      0.3499      0.2000       0.000    
  29    10.00       9.900       9.800       9.709       9.588       9.461       9.322       9.168       8.983       8.661    
        8.300       7.979       7.669       7.423       7.172       6.922       6.691       6.475       6.242       6.039    
        5.901       5.766       5.603       5.399       5.122       4.982       4.960       4.964       4.967       4.933    
        4.877       4.789       4.662       4.397       4.000       3.632       3.275       2.831       2.425       2.138    
        1.882       1.612       1.371       1.175      0.9773      0.7386      0.5242      0.3660      0.2030       0.000    
  30    10.00       9.914       9.831       9.751       9.644       9.519       9.393       9.219       8.971       8.679    
        8.314       7.968       7.715       7.469       7.233       7.005       6.818       6.617       6.388       6.173    
        6.001       5.887       5.747       5.608       5.454       5.329       5.285       5.188       5.128       5.034    
        4.912       4.757       4.568       4.284       3.961       3.608       3.222       2.800       2.488       2.224    
        1.919       1.647       1.437       1.214      0.9773      0.7654      0.5594      0.3892      0.2187       0.000    
  31    10.00       9.932       9.864       9.789       9.709       9.608       9.467       9.251       8.971       8.662    
        8.313       8.004       7.773       7.533       7.313       7.104       6.917       6.759       6.530       6.312    
        6.154       6.031       5.921       5.815       5.738       5.624       5.499       5.392       5.261       5.116    
        4.922       4.711       4.509       4.267       3.954       3.576       3.179       2.827       2.602       2.351    
        2.012       1.713       1.472       1.245       1.025      0.8066      0.5936      0.4100      0.2124       0.000    
  32    10.00       9.941       9.893       9.828       9.752       9.658       9.509       9.263       9.010       8.717    
        8.358       8.070       7.852       7.607       7.375       7.205       7.041       6.853       6.670       6.455    
        6.292       6.161       6.065       5.979       5.890       5.796       5.649       5.518       5.363       5.164    
        4.933       4.708       4.486       4.247       3.938       3.595       3.281       2.977       2.719       2.433    
        2.120       1.822       1.568       1.305       1.064      0.8790      0.6561      0.4033      0.1802       0.000    
  33    10.00       9.951       9.913       9.858       9.782       9.682       9.490       9.250       9.045       8.785    
        8.456       8.183       7.927       7.655       7.452       7.306       7.163       6.971       6.768       6.587    
        6.405       6.274       6.159       6.062       5.980       5.887       5.747       5.577       5.418       5.223    
        4.986       4.772       4.533       4.230       3.936       3.627       3.371       3.131       2.842       2.526    
        2.253       1.969       1.689       1.417       1.162      0.9544      0.7041      0.4067      0.1769       0.000    
  34    10.00       9.959       9.931       9.885       9.787       9.642       9.467       9.300       9.089       8.832    
        8.554       8.259       7.977       7.712       7.543       7.422       7.268       7.086       6.860       6.687    
        6.528       6.366       6.242       6.142       6.061       5.952       5.796       5.633       5.457       5.235    
        5.028       4.843       4.614       4.317       4.015       3.724       3.481       3.245       2.943       2.652    
        2.406       2.133       1.825       1.553       1.294       1.055      0.7555      0.4589      0.2406       0.000    
  35    10.00       9.967       9.932       9.867       9.748       9.609       9.484       9.340       9.171       8.896    
        8.595       8.305       8.023       7.801       7.647       7.520       7.358       7.167       6.951       6.747    
        6.602       6.454       6.327       6.231       6.142       6.030       5.855       5.660       5.456       5.228    
        5.068       4.884       4.645       4.426       4.168       3.858       3.583       3.382       3.090       2.776    
        2.536       2.255       1.947       1.679       1.409       1.146      0.8672      0.5748      0.2844       0.000    
  36    10.00       9.960       9.905       9.835       9.726       9.597       9.493       9.372       9.192       8.931    
        8.608       8.305       8.104       7.930       7.777       7.617       7.428       7.239       7.017       6.768    
        6.609       6.497       6.384       6.303       6.211       6.074       5.885       5.669       5.425       5.208    
        5.064       4.915       4.702       4.486       4.268       3.988       3.709       3.489       3.227       2.882    
        2.619       2.306       1.997       1.792       1.529       1.237      0.9571      0.6515      0.3188       0.000    
  37    10.00       9.939       9.882       9.813       9.707       9.595       9.478       9.365       9.203       8.904    
        8.572       8.338       8.216       8.050       7.863       7.706       7.483       7.254       6.988       6.742    
        6.621       6.529       6.420       6.335       6.231       6.070       5.879       5.613       5.383       5.230    
        5.094       4.927       4.715       4.542       4.318       4.053       3.833       3.619       3.324       2.945    
        2.600       2.305       2.089       1.876       1.613       1.335       1.055      0.7187      0.3947       0.000    
  38    10.00       9.932       9.859       9.788       9.696       9.591       9.470       9.348       9.165       8.888    
        8.639       8.451       8.294       8.147       7.950       7.707       7.465       7.210       6.919       6.743    
        6.645       6.529       6.427       6.353       6.241       6.054       5.780       5.525       5.394       5.272    
        5.128       4.949       4.754       4.580       4.361       4.115       3.933       3.717       3.339       2.922    
        2.621       2.374       2.160       1.939       1.706       1.424       1.145      0.8312      0.4108       0.000    
  39    10.00       9.914       9.843       9.780       9.693       9.575       9.450       9.326       9.155       8.929    
        8.734       8.590       8.417       8.220       7.953       7.659       7.389       7.098       6.886       6.765    
        6.630       6.499       6.421       6.351       6.247       6.005       5.719       5.551       5.427       5.301    
        5.140       4.968       4.778       4.603       4.435       4.232       3.992       3.730       3.357       2.968    
        2.650       2.394       2.225       2.040       1.778       1.499       1.216      0.8651      0.4054       0.000    
  40    10.00       9.905       9.839       9.775       9.687       9.568       9.446       9.324       9.172       8.985    
        8.825       8.701       8.498       8.207       7.881       7.588       7.303       7.050       6.890       6.750    
        6.597       6.480       6.409       6.328       6.190       5.978       5.774       5.601       5.459       5.328    
        5.170       4.983       4.802       4.654       4.505       4.299       4.023       3.747       3.368       2.950    
        2.652       2.449       2.263       2.105       1.829       1.523       1.264      0.8674      0.4039       0.000    
  41    10.00       9.915       9.839       9.763       9.669       9.576       9.474       9.361       9.212       9.043    
        8.890       8.746       8.498       8.161       7.826       7.550       7.269       7.024       6.869       6.721    
        6.568       6.463       6.388       6.292       6.148       5.983       5.842       5.672       5.494       5.340    
        5.188       5.017       4.842       4.712       4.553       4.348       4.071       3.690       3.255       2.932    
        2.716       2.519       2.327       2.106       1.819       1.527       1.305      0.9239      0.4190       0.000    
  42    10.00       9.916       9.830       9.764       9.695       9.609       9.501       9.374       9.248       9.119    
        8.933       8.695       8.410       8.090       7.780       7.527       7.253       7.010       6.846       6.679    
        6.537       6.444       6.363       6.274       6.139       6.021       5.900       5.709       5.510       5.370    
        5.243       5.055       4.867       4.741       4.594       4.374       4.034       3.584       3.185       2.945    
        2.781       2.606       2.360       2.067       1.792       1.563       1.332      0.9744      0.4808       0.000    
  43    10.00       9.909       9.837       9.780       9.726       9.644       9.539       9.420       9.282       9.091    
        8.858       8.615       8.348       8.015       7.735       7.502       7.256       7.013       6.805       6.650    
        6.519       6.426       6.354       6.280       6.164       6.039       5.917       5.720       5.546       5.442    
        5.286       5.083       4.901       4.771       4.599       4.314       3.921       3.495       3.203       3.019    
        2.845       2.643       2.342       2.041       1.797       1.576       1.378      0.9881      0.4516       0.000    
  44    10.00       9.908       9.846       9.796       9.731       9.671       9.585       9.428       9.230       9.013    
        8.819       8.572       8.252       7.974       7.748       7.482       7.211       6.959       6.753       6.616    
        6.518       6.436       6.362       6.284       6.183       6.055       5.891       5.727       5.609       5.483    
        5.344       5.167       4.958       4.759       4.549       4.231       3.818       3.467       3.241       3.063    
        2.887       2.648       2.357       2.096       1.836       1.599       1.356      0.8921      0.4103       0.000    
  45    10.00       9.919       9.861       9.795       9.733       9.681       9.544       9.361       9.162       8.976    
        8.816       8.490       8.157       7.955       7.715       7.421       7.129       6.895       6.726       6.615    
        6.539       6.460       6.378       6.286       6.174       6.049       5.910       5.783       5.678       5.548    
        5.387       5.203       4.988       4.737       4.486       4.143       3.755       3.478       3.306       3.122    
        2.888       2.614       2.365       2.127       1.897       1.660       1.266      0.7929      0.3991       0.000    
  46    10.00       9.935       9.873       9.797       9.725       9.624       9.476       9.339       9.172       8.972    
        8.709       8.401       8.134       7.877       7.623       7.340       7.068       6.894       6.754       6.646    
        6.570       6.494       6.390       6.275       6.166       6.060       5.950       5.832       5.727       5.612    
        5.467       5.273       5.028       4.731       4.372       4.016       3.728       3.532       3.353       3.161    
        2.884       2.592       2.344       2.156       1.935       1.628       1.179      0.7575      0.3735       0.000    
  47    10.00       9.947       9.889       9.813       9.692       9.558       9.432       9.325       9.172       8.911    
        8.596       8.313       8.082       7.867       7.597       7.288       7.048       6.883       6.771       6.681    
        6.598       6.509       6.402       6.280       6.173       6.089       5.997       5.881       5.759       5.647    
        5.520       5.358       5.034       4.617       4.267       4.010       3.768       3.599       3.441       3.176    
        2.838       2.529       2.304       2.174       1.930       1.553       1.115      0.7309      0.3693       0.000    
  48    10.00       9.952       9.893       9.781       9.657       9.541       9.415       9.306       9.152       8.858    
        8.515       8.278       8.088       7.826       7.511       7.232       7.051       6.885       6.774       6.704    
        6.620       6.514       6.397       6.285       6.197       6.130       6.047       5.919       5.779       5.657    
        5.524       5.329       4.993       4.646       4.333       4.049       3.834       3.661       3.458       3.122    
        2.758       2.520       2.341       2.111       1.790       1.456       1.081      0.7364      0.3899       0.000    
  49    10.00       9.950       9.861       9.753       9.659       9.535       9.412       9.297       9.103       8.792    
        8.485       8.259       8.022       7.757       7.519       7.259       7.008       6.853       6.785       6.720    
        6.640       6.518       6.383       6.286       6.218       6.168       6.073       5.926       5.778       5.668    
        5.524       5.268       4.970       4.725       4.463       4.150       3.872       3.658       3.419       3.058    
        2.765       2.556       2.309       1.977       1.693       1.391       1.063      0.7487      0.3813       0.000    
  50    10.00       9.937       9.839       9.740       9.665       9.549       9.413       9.267       9.057       8.811    
        8.501       8.197       7.950       7.739       7.548       7.257       6.971       6.854       6.794       6.730    
        6.654       6.517       6.372       6.284       6.230       6.184       6.078       5.919       5.779       5.666    
        5.509       5.240       5.011       4.801       4.517       4.206       3.925       3.641       3.297       2.977    
        2.822       2.602       2.241       1.906       1.668       1.381       1.095      0.7313      0.3004       0.000    

 HEAD WILL BE SAVED ON UNIT   51 AT END OF TIME STEP  93, STRESS PERIOD    2

 DRAWDOWN WILL BE SAVED ON UNIT   52 AT END OF TIME STEP  93, STRESS PERIOD    2
1
  VOLUMETRIC BUDGET FOR ENTIRE MODEL AT END OF TIME STEP 93 IN STRESS PERIOD   2
  ------------------------------------------------------------------------------

     CUMULATIVE VOLUMES      L**3       RATES FOR THIS TIME STEP      L**3/T
     ------------------                 ------------------------

           IN:                                      IN:
           ---                                      ---
             STORAGE =       42361.3164               STORAGE =         374.6931
       CONSTANT HEAD =       54624.6328         CONSTANT HEAD =         653.3595
               WELLS =           0.0000                 WELLS =           0.0000

            TOTAL IN =       96985.9531              TOTAL IN =        1028.0526

          OUT:                                     OUT:
          ----                                     ----
             STORAGE =       9.3745E-03               STORAGE =           0.0000
       CONSTANT HEAD =       50485.9180         CONSTANT HEAD =         528.0516
               WELLS =       46500.0000                 WELLS =         500.0000

           TOTAL OUT =       96985.9297             TOTAL OUT =        1028.0516

            IN - OUT =       2.3438E-02              IN - OUT =       9.7656E-04

 PERCENT DISCREPANCY =           0.00     PERCENT DISCREPANCY =           0.00






          TIME SUMMARY AT END OF TIME STEP  93 IN STRESS PERIOD    2
                    SECONDS     MINUTES      HOURS       DAYS        YEARS
                    -----------------------------------------------------------
   TIME STEP LENGTH  86400.      1440.0      24.000      1.0000     2.73785E-03
 STRESS PERIOD TIME 8.03520E+06 1.33920E+05  2232.0      93.000     0.25462    
         TOTAL TIME 8.12160E+06 1.35360E+05  2256.0      94.000     0.25736    
1
 
 SOLVING FOR HEAD 

 OUTPUT CONTROL FOR STRESS PERIOD    2   TIME STEP  94
    SAVE HEAD FOR ALL LAYERS
    SAVE DRAWDOWN FOR ALL LAYERS
    SAVE BUDGET
    PRINT HEAD FOR ALL LAYERS
    PRINT BUDGET
 UBDSV1 SAVING "         STORAGE" ON UNIT  53 AT TIME STEP 94, STRESS PERIOD   2
 UBDSV2 SAVING "   CONSTANT HEAD" ON UNIT  53 AT TIME STEP 94, STRESS PERIOD   2
 UBDSV1 SAVING "FLOW RIGHT FACE " ON UNIT  53 AT TIME STEP 94, STRESS PERIOD   2
 UBDSV1 SAVING "FLOW FRONT FACE " ON UNIT  53 AT TIME STEP 94, STRESS PERIOD   2
1
              HEAD IN LAYER   1 AT END OF TIME STEP  94 IN STRESS PERIOD    2
  ---------------------------------------------------------------------------

            1           2           3           4           5           6           7           8           9          10
           11          12          13          14          15          16          17          18          19          20
           21          22          23          24          25          26          27          28          29          30
           31          32          33          34          35          36          37          38          39          40
           41          42          43          44          45          46          47          48          49          50
 ........................................................................................................................
   1    10.00       9.950       9.882       9.814       9.758       9.689       9.622       9.551       9.457       9.379    
        9.334       9.288       9.238       9.189       9.109       9.022       8.927       8.853       8.820       8.784    
        8.739       8.702       8.663       8.616       8.550       8.436       8.300       8.168       8.018       7.869    
        7.659       7.325       6.933       6.520       6.059       5.634       5.274       4.942       4.490       3.999    
        3.583       3.174       2.609       2.074       1.700       1.325       1.010      0.8073      0.5355       0.000    
   2    10.00       9.950       9.889       9.821       9.761       9.697       9.622       9.529       9.439       9.379    
        9.338       9.298       9.259       9.197       9.105       9.015       8.928       8.856       8.820       8.779    
        8.734       8.705       8.675       8.624       8.548       8.439       8.301       8.164       8.024       7.875    
        7.647       7.302       6.888       6.422       5.957       5.547       5.226       4.901       4.442       3.981    
        3.561       3.070       2.560       2.138       1.767       1.418       1.060      0.7667      0.4094       0.000    
   3    10.00       9.945       9.886       9.824       9.763       9.690       9.597       9.509       9.451       9.397    
        9.349       9.314       9.276       9.217       9.126       9.013       8.921       8.862       8.817       8.775    
        8.738       8.707       8.676       8.612       8.530       8.419       8.288       8.184       8.035       7.859    
        7.564       7.161       6.718       6.263       5.838       5.460       5.175       4.839       4.341       3.893    
        3.545       3.099       2.633       2.229       1.844       1.492       1.069      0.6576      0.2893       0.000    
   4    10.00       9.949       9.890       9.822       9.746       9.662       9.573       9.507       9.458       9.407    
        9.366       9.336       9.294       9.230       9.146       9.023       8.920       8.865       8.817       8.778    
        8.734       8.697       8.658       8.589       8.506       8.397       8.269       8.152       8.034       7.813    
        7.428       6.932       6.455       6.108       5.795       5.432       5.067       4.639       4.219       3.896    
        3.588       3.197       2.732       2.334       1.932       1.507       1.019      0.5837      0.2719       0.000    
   5    10.00       9.945       9.882       9.805       9.727       9.648       9.571       9.515       9.464       9.420    
        9.384       9.352       9.302       9.228       9.130       9.017       8.930       8.869       8.819       8.764    
        8.713       8.675       8.625       8.556       8.477       8.352       8.224       8.123       8.006       7.717    
        7.207       6.656       6.263       6.001       5.720       5.357       4.940       4.520       4.226       3.955    
        3.680       3.278       2.797       2.451       2.043       1.487      0.9270      0.5386      0.2710       0.000    
   6    10.00       9.932       9.857       9.797       9.723       9.642       9.576       9.526       9.473       9.433    
        9.400       9.360       9.296       9.209       9.124       9.031       8.937       8.860       8.796       8.732    
        8.688       8.646       8.601       8.527       8.409       8.289       8.194       8.084       7.884       7.466    
        6.893       6.392       6.093       5.899       5.673       5.273       4.824       4.497       4.283       4.049    
        3.786       3.425       2.950       2.521       2.017       1.422      0.8311      0.4736      0.2646       0.000    
   7    10.00       9.913       9.843       9.783       9.713       9.654       9.592       9.539       9.495       9.452    
        9.408       9.351       9.273       9.189       9.112       9.035       8.929       8.825       8.756       8.705    
        8.661       8.616       8.569       8.468       8.347       8.252       8.147       7.965       7.621       7.085    
        6.546       6.158       5.977       5.830       5.539       5.140       4.848       4.570       4.343       4.184    
        3.921       3.551       3.044       2.489       1.868       1.185      0.6965      0.4808      0.2435       0.000    
   8    10.00       9.907       9.842       9.779       9.715       9.664       9.610       9.559       9.516       9.474    
        9.411       9.327       9.245       9.171       9.099       9.003       8.877       8.780       8.727       8.678    
        8.626       8.588       8.509       8.399       8.291       8.178       7.976       7.687       7.211       6.748    
        6.352       6.053       5.920       5.739       5.408       5.104       4.864       4.662       4.486       4.300    
        4.029       3.574       2.989       2.357       1.649       1.069      0.7369      0.4716      0.2173       0.000    
   9    10.00       9.911       9.838       9.775       9.730       9.686       9.634       9.584       9.534       9.486    
        9.405       9.302       9.217       9.142       9.054       8.947       8.832       8.747       8.693       8.641    
        8.595       8.532       8.420       8.318       8.206       8.044       7.748       7.311       6.842       6.513    
        6.204       5.993       5.844       5.603       5.301       5.069       4.902       4.753       4.604       4.403    
        4.067       3.593       2.973       2.268       1.617       1.107      0.7517      0.4678      0.2320       0.000    
  10    10.00       9.910       9.835       9.783       9.743       9.700       9.654       9.611       9.553       9.475    
        9.376       9.272       9.189       9.106       9.014       8.888       8.774       8.706       8.659       8.607    
        8.559       8.455       8.335       8.221       8.063       7.816       7.368       6.899       6.537       6.292    
        6.113       5.944       5.739       5.493       5.243       5.074       4.955       4.833       4.666       4.432    
        4.072       3.555       2.893       2.264       1.750       1.268      0.8053      0.4969      0.2620       0.000    
  11    10.00       9.898       9.840       9.797       9.756       9.718       9.677       9.618       9.535       9.448    
        9.348       9.247       9.166       9.055       8.928       8.818       8.738       8.674       8.627       8.570    
        8.482       8.347       8.172       8.003       7.723       7.353       6.959       6.654       6.370       6.199    
        6.049       5.823       5.595       5.414       5.253       5.135       5.018       4.861       4.664       4.389    
        4.052       3.596       2.929       2.358       1.903       1.442      0.9289      0.4931      0.1980       0.000    
  12    10.00       9.907       9.849       9.804       9.769       9.730       9.684       9.604       9.504       9.414    
        9.319       9.218       9.109       8.974       8.870       8.776       8.691       8.639       8.577       8.488    
        8.314       8.082       7.836       7.582       7.235       6.954       6.755       6.440       6.211       6.082    
        5.925       5.712       5.538       5.390       5.291       5.184       5.045       4.868       4.632       4.346    
        4.015       3.571       2.961       2.453       2.043       1.546      0.9790      0.4675      0.1555       0.000    
  13    10.00       9.927       9.874       9.824       9.780       9.734       9.666       9.566       9.463       9.374    
        9.273       9.171       9.056       8.917       8.797       8.703       8.643       8.575       8.487       8.273    
        7.952       7.672       7.407       7.091       6.823       6.701       6.452       6.168       6.056       5.953    
        5.787       5.609       5.488       5.394       5.315       5.217       5.059       4.838       4.608       4.315    
        3.988       3.538       2.910       2.436       2.057       1.513      0.9121      0.4230      0.1222       0.000    
  14    10.00       9.946       9.898       9.845       9.792       9.721       9.621       9.515       9.423       9.321    
        9.221       9.127       8.990       8.833       8.724       8.650       8.549       8.442       8.229       7.853    
        7.513       7.265       6.918       6.663       6.546       6.410       6.154       5.994       5.879       5.779    
        5.642       5.541       5.474       5.404       5.324       5.225       5.046       4.806       4.560       4.262    
        3.913       3.370       2.779       2.397       1.932       1.409      0.8982      0.3859      9.9360E-02   0.000    
  15    10.00       9.957       9.908       9.855       9.793       9.685       9.562       9.469       9.377       9.279    
        9.203       9.092       8.910       8.739       8.639       8.505       8.369       8.232       7.872       7.433    
        7.156       6.806       6.494       6.402       6.333       6.153       5.951       5.794       5.714       5.644    
        5.569       5.517       5.470       5.412       5.328       5.207       5.000       4.726       4.469       4.195    
        3.818       3.290       2.782       2.268       1.704       1.236      0.7715      0.3396      0.1019       0.000    
  16    10.00       9.968       9.920       9.856       9.759       9.626       9.519       9.444       9.361       9.260    
        9.157       8.997       8.786       8.622       8.475       8.316       8.225       7.945       7.424       7.024    
        6.748       6.408       6.296       6.243       6.112       5.885       5.723       5.654       5.637       5.594    
        5.542       5.501       5.463       5.401       5.299       5.147       4.897       4.651       4.450       4.159    
        3.730       3.162       2.576       2.002       1.523       1.059      0.6567      0.3219      0.1086       0.000    
  17    10.00       9.968       9.916       9.832       9.710       9.576       9.488       9.418       9.324       9.210    
        9.037       8.833       8.644       8.466       8.283       8.131       7.902       7.435       6.954       6.682    
        6.415       6.212       6.125       5.998       5.792       5.626       5.587       5.585       5.578       5.543    
        5.506       5.477       5.443       5.382       5.231       5.023       4.811       4.641       4.452       4.086    
        3.512       2.931       2.370       1.806       1.303      0.8570      0.5499      0.2875      0.1182       0.000    
  18    10.00       9.960       9.899       9.797       9.644       9.536       9.466       9.371       9.262       9.103    
        8.893       8.712       8.522       8.281       8.042       7.790       7.457       6.988       6.634       6.399    
        6.185       6.016       5.884       5.702       5.565       5.525       5.517       5.519       5.502       5.479    
        5.462       5.443       5.404       5.297       5.139       4.965       4.792       4.641       4.375       3.883    
        3.295       2.676       2.074       1.610       1.208      0.8030      0.4723      0.2378      0.1140       0.000    
  19    10.00       9.950       9.883       9.734       9.581       9.518       9.439       9.320       9.186       9.014    
        8.823       8.653       8.376       8.010       7.727       7.470       7.071       6.650       6.415       6.237    
        6.017       5.813       5.668       5.530       5.465       5.453       5.451       5.434       5.409       5.406    
        5.402       5.388       5.328       5.227       5.099       4.932       4.778       4.560       4.101       3.588    
        3.112       2.471       1.898       1.529       1.130      0.7246      0.4265      0.2422      0.1241       0.000    
  20    10.00       9.939       9.825       9.672       9.561       9.492       9.406       9.279       9.129       8.972    
        8.776       8.516       8.102       7.741       7.491       7.176       6.784       6.557       6.345       6.098    
        5.856       5.675       5.525       5.429       5.382       5.359       5.330       5.324       5.311       5.322    
        5.328       5.316       5.253       5.164       5.033       4.892       4.698       4.298       3.802       3.393    
        2.875       2.282       1.853       1.496       1.093      0.6436      0.3730      0.2523      0.1300       0.000    
  21    10.00       9.899       9.776       9.648       9.538       9.466       9.372       9.223       9.074       8.926    
        8.662       8.264       7.846       7.577       7.300       6.970       6.682       6.468       6.213       5.953    
        5.724       5.547       5.416       5.316       5.249       5.198       5.181       5.190       5.194       5.212    
        5.234       5.211       5.148       5.067       4.938       4.784       4.480       4.060       3.671       3.174    
        2.682       2.214       1.851       1.490      0.9219      0.5222      0.3779      0.2852      0.1368       0.000    
  22    10.00       9.872       9.725       9.610       9.523       9.436       9.303       9.165       9.033       8.827    
        8.489       8.041       7.713       7.470       7.161       6.825       6.551       6.326       6.095       5.850    
        5.623       5.437       5.262       5.106       5.018       4.998       5.014       5.028       5.066       5.090    
        5.114       5.087       5.038       4.954       4.829       4.676       4.368       3.969       3.459       2.978    
        2.622       2.248       1.811       1.205      0.7213      0.5213      0.3965      0.2641      9.7769E-02   0.000    
  23    10.00       9.834       9.691       9.600       9.508       9.377       9.233       9.130       8.963       8.706    
        8.313       7.932       7.696       7.393       6.993       6.661       6.447       6.265       6.049       5.787    
        5.548       5.330       5.080       4.787       4.573       4.616       4.751       4.839       4.919       4.973    
        4.995       4.985       4.943       4.865       4.749       4.579       4.269       3.776       3.266       2.926    
        2.599       2.128       1.498      0.9749      0.7111      0.5323      0.3811      0.2251      8.9616E-02   0.000    
  24    10.00       9.808       9.705       9.596       9.464       9.328       9.218       9.103       8.943       8.604    
        8.237       7.955       7.688       7.284       6.847       6.609       6.429       6.250       6.006       5.759    
        5.546       5.270       4.869       4.316       3.642       3.913       4.319       4.602       4.769       4.855    
        4.900       4.898       4.869       4.785       4.654       4.438       4.045       3.578       3.196       2.844    
        2.441       1.913       1.349      0.9474      0.7137      0.5196      0.3484      0.2443      0.1199       0.000    
  25    10.00       9.830       9.724       9.588       9.450       9.325       9.216       9.111       8.871       8.543    
        8.260       7.975       7.626       7.184       6.859       6.645       6.441       6.226       6.003       5.790    
        5.546       5.281       4.710       3.659       1.793       3.174       3.920       4.364       4.639       4.783    
        4.839       4.843       4.806       4.688       4.507       4.210       3.837       3.470       3.143       2.731    
        2.244       1.739       1.262      0.9410      0.7409      0.5407      0.3675      0.2561      0.1594       0.000    
  26    10.00       9.853       9.751       9.607       9.460       9.346       9.230       9.075       8.839       8.610    
        8.344       7.955       7.528       7.171       6.925       6.715       6.478       6.213       5.997       5.819    
        5.616       5.353       4.858       4.083       3.225       3.577       4.023       4.353       4.606       4.765    
        4.814       4.808       4.739       4.596       4.395       4.111       3.700       3.348       3.039       2.535    
        1.982       1.537       1.252       1.028      0.7996      0.5843      0.4010      0.2784      0.1627       0.000    
  27    10.00       9.883       9.757       9.628       9.501       9.367       9.238       9.082       8.887       8.678    
        8.344       7.907       7.533       7.235       7.028       6.786       6.477       6.201       6.031       5.885    
        5.725       5.481       5.104       4.644       4.175       4.137       4.303       4.511       4.699       4.795    
        4.812       4.791       4.708       4.551       4.314       3.929       3.538       3.244       2.770       2.234    
        1.800       1.512       1.296       1.100      0.8748      0.6382      0.4360      0.3067      0.1935       0.000    
  28    10.00       9.892       9.789       9.672       9.548       9.407       9.263       9.113       8.944       8.700    
        8.311       7.931       7.604       7.312       7.091       6.855       6.602       6.333       6.091       5.939    
        5.811       5.636       5.391       5.053       4.763       4.588       4.616       4.748       4.813       4.842    
        4.830       4.788       4.685       4.480       4.165       3.761       3.417       2.999       2.499       2.113    
        1.801       1.555       1.343       1.139      0.9198      0.6970      0.4951      0.3496      0.1999       0.000    
  29    10.00       9.900       9.799       9.708       9.587       9.460       9.320       9.165       8.980       8.656    
        8.294       7.973       7.663       7.416       7.164       6.914       6.683       6.466       6.233       6.030    
        5.891       5.756       5.593       5.389       5.111       4.971       4.949       4.953       4.956       4.922    
        4.866       4.779       4.652       4.388       3.993       3.626       3.270       2.827       2.422       2.136    
        1.880       1.610       1.370       1.174      0.9765      0.7379      0.5237      0.3657      0.2029       0.000    
  30    10.00       9.914       9.830       9.751       9.643       9.517       9.391       9.216       8.968       8.674    
        8.309       7.962       7.708       7.462       7.225       6.997       6.810       6.608       6.379       6.164    
        5.992       5.877       5.737       5.598       5.444       5.319       5.275       5.177       5.117       5.023    
        4.902       4.748       4.560       4.277       3.955       3.603       3.217       2.797       2.485       2.222    
        1.917       1.646       1.436       1.213      0.9765      0.7648      0.5590      0.3889      0.2185       0.000    
  31    10.00       9.932       9.864       9.788       9.708       9.607       9.465       9.249       8.967       8.658    
        8.308       7.998       7.766       7.526       7.306       7.096       6.909       6.750       6.521       6.303    
        6.145       6.021       5.912       5.805       5.728       5.614       5.489       5.382       5.251       5.106    
        4.913       4.703       4.502       4.260       3.948       3.572       3.176       2.824       2.600       2.349    
        2.011       1.711       1.471       1.244       1.024      0.8060      0.5932      0.4098      0.2122       0.000    
  32    10.00       9.941       9.893       9.827       9.752       9.657       9.507       9.261       9.006       8.713    
        8.353       8.065       7.846       7.600       7.368       7.198       7.033       6.845       6.661       6.446    
        6.283       6.152       6.056       5.970       5.881       5.786       5.639       5.508       5.354       5.155    
        4.925       4.701       4.479       4.242       3.933       3.591       3.278       2.974       2.716       2.431    
        2.119       1.821       1.567       1.304       1.064      0.8784      0.6556      0.4030      0.1801       0.000    
  33    10.00       9.951       9.913       9.857       9.781       9.681       9.488       9.248       9.042       8.781    
        8.451       8.178       7.921       7.648       7.445       7.299       7.156       6.963       6.760       6.578    
        6.397       6.266       6.151       6.053       5.971       5.878       5.738       5.568       5.409       5.215    
        4.979       4.765       4.527       4.225       3.932       3.623       3.368       3.128       2.839       2.524    
        2.252       1.968       1.688       1.416       1.161      0.9538      0.7037      0.4065      0.1768       0.000    
  34    10.00       9.959       9.931       9.884       9.786       9.641       9.465       9.298       9.086       8.829    
        8.550       8.254       7.971       7.706       7.537       7.416       7.261       7.079       6.852       6.679    
        6.520       6.358       6.234       6.134       6.053       5.944       5.788       5.625       5.449       5.229    
        5.022       4.837       4.609       4.312       4.011       3.721       3.478       3.242       2.940       2.651    
        2.405       2.131       1.824       1.552       1.294       1.055      0.7551      0.4587      0.2405       0.000    
  35    10.00       9.967       9.932       9.867       9.748       9.608       9.482       9.338       9.169       8.893    
        8.591       8.300       8.018       7.796       7.641       7.513       7.351       7.160       6.944       6.740    
        6.594       6.446       6.320       6.223       6.134       6.023       5.848       5.653       5.449       5.222    
        5.063       4.879       4.641       4.422       4.165       3.855       3.580       3.379       3.088       2.774    
        2.535       2.254       1.946       1.678       1.408       1.146      0.8669      0.5746      0.2843       0.000    
  36    10.00       9.960       9.905       9.835       9.725       9.595       9.491       9.371       9.189       8.928    
        8.604       8.301       8.099       7.924       7.772       7.611       7.422       7.232       7.010       6.762    
        6.602       6.490       6.377       6.296       6.204       6.067       5.878       5.663       5.419       5.204    
        5.060       4.911       4.698       4.483       4.265       3.986       3.707       3.487       3.225       2.881    
        2.618       2.305       1.997       1.791       1.529       1.237      0.9568      0.6513      0.3187       0.000    
  37    10.00       9.939       9.881       9.812       9.706       9.594       9.477       9.363       9.200       8.901    
        8.568       8.334       8.212       8.046       7.858       7.701       7.478       7.248       6.982       6.736    
        6.615       6.523       6.414       6.329       6.225       6.064       5.874       5.608       5.379       5.226    
        5.091       4.924       4.712       4.540       4.316       4.050       3.830       3.617       3.322       2.944    
        2.598       2.304       2.088       1.875       1.612       1.335       1.055      0.7184      0.3945       0.000    
  38    10.00       9.932       9.859       9.787       9.695       9.590       9.469       9.346       9.163       8.885    
        8.636       8.447       8.290       8.143       7.945       7.702       7.459       7.204       6.913       6.738    
        6.640       6.524       6.422       6.347       6.236       6.049       5.775       5.522       5.391       5.269    
        5.125       4.946       4.751       4.578       4.358       4.113       3.931       3.715       3.338       2.921    
        2.620       2.373       2.159       1.938       1.706       1.424       1.145      0.8309      0.4107       0.000    
  39    10.00       9.914       9.843       9.779       9.692       9.574       9.448       9.324       9.153       8.926    
        8.731       8.587       8.413       8.216       7.948       7.654       7.384       7.094       6.882       6.760    
        6.626       6.495       6.416       6.346       6.242       6.001       5.715       5.548       5.424       5.298    
        5.137       4.965       4.776       4.601       4.433       4.230       3.990       3.728       3.356       2.967    
        2.649       2.393       2.224       2.040       1.777       1.498       1.215      0.8648      0.4053       0.000    
  40    10.00       9.905       9.838       9.775       9.686       9.567       9.445       9.323       9.170       8.983    
        8.822       8.698       8.495       8.203       7.878       7.584       7.299       7.046       6.886       6.746    
        6.593       6.476       6.404       6.324       6.186       5.975       5.771       5.598       5.456       5.325    
        5.167       4.981       4.800       4.652       4.503       4.297       4.021       3.746       3.367       2.949    
        2.651       2.448       2.263       2.104       1.829       1.523       1.264      0.8671      0.4037       0.000    
  41    10.00       9.915       9.838       9.762       9.668       9.575       9.473       9.360       9.211       9.041    
        8.888       8.744       8.496       8.158       7.822       7.547       7.265       7.020       6.865       6.717    
        6.565       6.460       6.385       6.289       6.145       5.980       5.839       5.669       5.492       5.338    
        5.186       5.015       4.840       4.710       4.551       4.346       4.069       3.688       3.254       2.931    
        2.715       2.518       2.326       2.106       1.819       1.526       1.304      0.9236      0.4188       0.000    
  42    10.00       9.915       9.829       9.763       9.694       9.608       9.500       9.373       9.247       9.118    
        8.931       8.692       8.407       8.087       7.777       7.524       7.249       7.007       6.843       6.676    
        6.533       6.441       6.360       6.271       6.136       6.018       5.897       5.706       5.508       5.368    
        5.240       5.053       4.865       4.739       4.592       4.372       4.032       3.583       3.184       2.943    
        2.780       2.605       2.359       2.066       1.791       1.562       1.332      0.9740      0.4806       0.000    
  43    10.00       9.909       9.837       9.780       9.726       9.644       9.539       9.419       9.281       9.089    
        8.856       8.613       8.346       8.013       7.733       7.499       7.253       7.009       6.802       6.647    
        6.516       6.423       6.351       6.278       6.161       6.036       5.914       5.718       5.544       5.439    
        5.284       5.081       4.899       4.768       4.597       4.313       3.919       3.493       3.202       3.018    
        2.844       2.642       2.341       2.040       1.797       1.576       1.378      0.9877      0.4514       0.000    
  44    10.00       9.908       9.846       9.795       9.731       9.670       9.584       9.428       9.229       9.012    
        8.817       8.571       8.250       7.972       7.746       7.479       7.209       6.957       6.750       6.613    
        6.515       6.433       6.359       6.281       6.181       6.053       5.889       5.725       5.606       5.481    
        5.342       5.164       4.956       4.757       4.547       4.229       3.816       3.465       3.240       3.061    
        2.886       2.647       2.356       2.096       1.835       1.598       1.355      0.8918      0.4101       0.000    
  45    10.00       9.919       9.861       9.795       9.733       9.680       9.543       9.361       9.161       8.975    
        8.815       8.489       8.155       7.953       7.713       7.419       7.126       6.892       6.723       6.612    
        6.536       6.458       6.375       6.283       6.172       6.047       5.908       5.780       5.676       5.546    
        5.384       5.201       4.986       4.735       4.484       4.141       3.753       3.477       3.305       3.121    
        2.887       2.613       2.364       2.127       1.896       1.660       1.266      0.7926      0.3989       0.000    
  46    10.00       9.935       9.873       9.796       9.725       9.623       9.476       9.338       9.171       8.971    
        8.708       8.400       8.132       7.875       7.621       7.337       7.066       6.892       6.752       6.644    
        6.567       6.491       6.387       6.272       6.164       6.058       5.947       5.830       5.725       5.610    
        5.464       5.271       5.026       4.729       4.370       4.014       3.727       3.531       3.351       3.160    
        2.883       2.591       2.343       2.155       1.935       1.627       1.179      0.7572      0.3733       0.000    
  47    10.00       9.947       9.889       9.813       9.692       9.558       9.432       9.324       9.171       8.910    
        8.595       8.312       8.080       7.865       7.595       7.286       7.046       6.880       6.769       6.678    
        6.596       6.507       6.399       6.277       6.171       6.086       5.994       5.878       5.757       5.645    
        5.518       5.356       5.032       4.615       4.265       4.008       3.767       3.598       3.439       3.174    
        2.837       2.528       2.303       2.173       1.929       1.553       1.115      0.7307      0.3692       0.000    
  48    10.00       9.952       9.893       9.781       9.657       9.541       9.414       9.305       9.151       8.856    
        8.513       8.276       8.086       7.824       7.509       7.230       7.049       6.883       6.772       6.701    
        6.618       6.511       6.395       6.283       6.195       6.127       6.045       5.917       5.776       5.655    
        5.522       5.327       4.991       4.644       4.331       4.048       3.833       3.660       3.457       3.121    
        2.757       2.519       2.340       2.110       1.789       1.455       1.080      0.7362      0.3898       0.000    
  49    10.00       9.950       9.860       9.752       9.659       9.535       9.411       9.296       9.102       8.791    
        8.484       8.257       8.020       7.755       7.517       7.257       7.006       6.851       6.783       6.717    
        6.638       6.516       6.380       6.283       6.215       6.165       6.071       5.923       5.775       5.666    
        5.522       5.265       4.968       4.723       4.461       4.148       3.870       3.657       3.418       3.057    
        2.765       2.555       2.308       1.976       1.692       1.391       1.063      0.7484      0.3812       0.000    
  50    10.00       9.937       9.838       9.740       9.665       9.549       9.412       9.266       9.056       8.810    
        8.500       8.196       7.949       7.737       7.546       7.255       6.968       6.851       6.792       6.728    
        6.652       6.514       6.369       6.281       6.227       6.181       6.076       5.917       5.776       5.664    
        5.507       5.238       5.009       4.799       4.515       4.205       3.923       3.640       3.296       2.976    
        2.821       2.601       2.240       1.906       1.668       1.380       1.095      0.7311      0.3003       0.000    

 HEAD WILL BE SAVED ON UNIT   51 AT END OF TIME STEP  94, STRESS PERIOD    2

 DRAWDOWN WILL BE SAVED ON UNIT   52 AT END OF TIME STEP  94, STRESS PERIOD    2
1
  VOLUMETRIC BUDGET FOR ENTIRE MODEL AT END OF TIME STEP 94 IN STRESS PERIOD   2
  ------------------------------------------------------------------------------

     CUMULATIVE VOLUMES      L**3       RATES FOR THIS TIME STEP      L**3/T
     ------------------                 ------------------------

           IN:                                      IN:
           ---                                      ---
             STORAGE =       42734.0430               STORAGE =         372.7258
       CONSTANT HEAD =       55279.6016         CONSTANT HEAD =         654.9680
               WELLS =           0.0000                 WELLS =           0.0000

            TOTAL IN =       98013.6406              TOTAL IN =        1027.6937

          OUT:                                     OUT:
          ----                                     ----
             STORAGE =       9.3745E-03               STORAGE =           0.0000
       CONSTANT HEAD =       51013.6133         CONSTANT HEAD =         527.6935
               WELLS =       47000.0000                 WELLS =         500.0000

           TOTAL OUT =       98013.6250             TOTAL OUT =        1027.6936

            IN - OUT =       1.5625E-02              IN - OUT =       1.2207E-04

 PERCENT DISCREPANCY =           0.00     PERCENT DISCREPANCY =           0.00






          TIME SUMMARY AT END OF TIME STEP  94 IN STRESS PERIOD    2
                    SECONDS     MINUTES      HOURS       DAYS        YEARS
                    -----------------------------------------------------------
   TIME STEP LENGTH  86400.      1440.0      24.000      1.0000     2.73785E-03
 STRESS PERIOD TIME 8.12160E+06 1.35360E+05  2256.0      94.000     0.25736    
         TOTAL TIME 8.20800E+06 1.36800E+05  2280.0      95.000     0.26010    
1
 
 SOLVING FOR HEAD 

 OUTPUT CONTROL FOR STRESS PERIOD    2   TIME STEP  95
    SAVE HEAD FOR ALL LAYERS
    SAVE DRAWDOWN FOR ALL LAYERS
    SAVE BUDGET
    PRINT HEAD FOR ALL LAYERS
    PRINT BUDGET
 UBDSV1 SAVING "         STORAGE" ON UNIT  53 AT TIME STEP 95, STRESS PERIOD   2
 UBDSV2 SAVING "   CONSTANT HEAD" ON UNIT  53 AT TIME STEP 95, STRESS PERIOD   2
 UBDSV1 SAVING "FLOW RIGHT FACE " ON UNIT  53 AT TIME STEP 95, STRESS PERIOD   2
 UBDSV1 SAVING "FLOW FRONT FACE " ON UNIT  53 AT TIME STEP 95, STRESS PERIOD   2
1
              HEAD IN LAYER   1 AT END OF TIME STEP  95 IN STRESS PERIOD    2
  ---------------------------------------------------------------------------

            1           2           3           4           5           6           7           8           9          10
           11          12          13          14          15          16          17          18          19          20
           21          22          23          24          25          26          27          28          29          30
           31          32          33          34          35          36          37          38          39          40
           41          42          43          44          45          46          47          48          49          50
 ........................................................................................................................
   1    10.00       9.950       9.882       9.814       9.757       9.688       9.621       9.550       9.455       9.378    
        9.332       9.287       9.236       9.187       9.107       9.019       8.924       8.850       8.817       8.781    
        8.736       8.698       8.660       8.612       8.547       8.433       8.296       8.165       8.014       7.865    
        7.655       7.321       6.929       6.516       6.055       5.629       5.270       4.938       4.486       3.996    
        3.580       3.171       2.607       2.072       1.698       1.323       1.009      0.8065      0.5349       0.000    
   2    10.00       9.950       9.888       9.820       9.760       9.696       9.621       9.528       9.437       9.377    
        9.337       9.296       9.257       9.195       9.103       9.013       8.926       8.853       8.817       8.776    
        8.731       8.702       8.671       8.620       8.544       8.436       8.298       8.160       8.020       7.871    
        7.643       7.298       6.884       6.417       5.952       5.543       5.222       4.897       4.438       3.977    
        3.558       3.067       2.558       2.136       1.765       1.417       1.059      0.7659      0.4090       0.000    
   3    10.00       9.945       9.886       9.824       9.763       9.689       9.596       9.507       9.449       9.395    
        9.348       9.312       9.274       9.215       9.123       9.011       8.919       8.859       8.814       8.772    
        8.735       8.704       8.673       8.608       8.527       8.416       8.284       8.180       8.031       7.855    
        7.560       7.157       6.713       6.259       5.833       5.456       5.171       4.835       4.337       3.889    
        3.541       3.096       2.630       2.226       1.842       1.491       1.068      0.6570      0.2890       0.000    
   4    10.00       9.949       9.889       9.821       9.746       9.661       9.571       9.506       9.457       9.405    
        9.364       9.334       9.292       9.228       9.144       9.020       8.918       8.862       8.814       8.774    
        8.731       8.694       8.655       8.586       8.502       8.394       8.265       8.148       8.030       7.809    
        7.423       6.927       6.451       6.103       5.790       5.427       5.063       4.635       4.215       3.892    
        3.585       3.194       2.729       2.332       1.930       1.506       1.018      0.5831      0.2716       0.000    
   5    10.00       9.945       9.882       9.804       9.726       9.647       9.569       9.514       9.462       9.418    
        9.382       9.350       9.301       9.226       9.127       9.015       8.927       8.866       8.816       8.761    
        8.710       8.672       8.622       8.552       8.473       8.348       8.220       8.119       8.001       7.713    
        7.202       6.651       6.258       5.996       5.715       5.352       4.936       4.515       4.222       3.951    
        3.676       3.275       2.794       2.448       2.041       1.486      0.9260      0.5381      0.2707       0.000    
   6    10.00       9.932       9.857       9.796       9.722       9.641       9.575       9.525       9.472       9.431    
        9.398       9.358       9.294       9.207       9.122       9.029       8.934       8.857       8.793       8.729    
        8.684       8.643       8.597       8.523       8.406       8.285       8.190       8.080       7.880       7.461    
        6.888       6.387       6.087       5.894       5.667       5.267       4.819       4.493       4.279       4.044    
        3.782       3.422       2.947       2.519       2.015       1.421      0.8303      0.4731      0.2644       0.000    
   7    10.00       9.913       9.842       9.783       9.712       9.653       9.590       9.538       9.493       9.450    
        9.407       9.349       9.271       9.187       9.110       9.032       8.926       8.822       8.753       8.702    
        8.658       8.613       8.565       8.464       8.344       8.248       8.143       7.961       7.616       7.080    
        6.540       6.152       5.971       5.824       5.534       5.134       4.843       4.565       4.338       4.180    
        3.917       3.547       3.041       2.487       1.866       1.184      0.6958      0.4803      0.2433       0.000    
   8    10.00       9.907       9.842       9.778       9.715       9.663       9.608       9.558       9.515       9.473    
        9.409       9.326       9.243       9.169       9.097       9.000       8.874       8.776       8.724       8.675    
        8.623       8.585       8.505       8.395       8.287       8.174       7.971       7.682       7.205       6.742    
        6.346       6.047       5.913       5.733       5.402       5.098       4.858       4.657       4.480       4.296    
        4.025       3.570       2.986       2.354       1.647       1.068      0.7362      0.4711      0.2171       0.000    
   9    10.00       9.911       9.838       9.775       9.729       9.685       9.633       9.583       9.533       9.485    
        9.403       9.300       9.215       9.139       9.052       8.944       8.829       8.743       8.689       8.638    
        8.591       8.529       8.416       8.314       8.201       8.039       7.743       7.306       6.836       6.506    
        6.197       5.987       5.838       5.596       5.294       5.063       4.896       4.747       4.598       4.397    
        4.062       3.589       2.970       2.266       1.615       1.106      0.7510      0.4673      0.2317       0.000    
  10    10.00       9.910       9.835       9.783       9.742       9.699       9.653       9.610       9.551       9.474    
        9.374       9.270       9.187       9.104       9.011       8.885       8.771       8.702       8.655       8.604    
        8.556       8.451       8.331       8.217       8.058       7.811       7.363       6.892       6.531       6.285    
        6.106       5.937       5.732       5.486       5.236       5.068       4.949       4.827       4.660       4.427    
        4.067       3.551       2.889       2.261       1.748       1.266      0.8044      0.4964      0.2617       0.000    
  11    10.00       9.898       9.840       9.796       9.755       9.718       9.676       9.617       9.534       9.446    
        9.346       9.245       9.164       9.053       8.925       8.815       8.734       8.670       8.624       8.566    
        8.478       8.343       8.167       7.998       7.717       7.347       6.952       6.647       6.362       6.191    
        6.041       5.816       5.588       5.407       5.246       5.129       5.012       4.855       4.658       4.384    
        4.047       3.592       2.926       2.355       1.901       1.440      0.9280      0.4926      0.1978       0.000    
  12    10.00       9.906       9.849       9.803       9.769       9.729       9.683       9.602       9.503       9.413    
        9.317       9.216       9.107       8.972       8.866       8.772       8.687       8.635       8.573       8.484    
        8.309       8.077       7.830       7.576       7.228       6.947       6.747       6.432       6.203       6.074    
        5.917       5.705       5.531       5.383       5.283       5.177       5.039       4.861       4.626       4.340    
        4.010       3.567       2.958       2.450       2.041       1.544      0.9780      0.4670      0.1553       0.000    
  13    10.00       9.927       9.873       9.824       9.780       9.734       9.665       9.565       9.461       9.372    
        9.271       9.168       9.053       8.914       8.793       8.699       8.639       8.571       8.482       8.269    
        7.947       7.666       7.401       7.083       6.815       6.693       6.444       6.160       6.048       5.945    
        5.779       5.601       5.480       5.386       5.308       5.210       5.052       4.832       4.602       4.310    
        3.983       3.534       2.907       2.433       2.054       1.511      0.9112      0.4225      0.1221       0.000    
  14    10.00       9.946       9.898       9.845       9.792       9.721       9.620       9.514       9.421       9.319    
        9.219       9.124       8.987       8.830       8.720       8.646       8.545       8.438       8.224       7.847    
        7.506       7.258       6.911       6.655       6.538       6.402       6.146       5.985       5.870       5.770    
        5.634       5.533       5.466       5.396       5.316       5.217       5.039       4.799       4.553       4.256    
        3.907       3.366       2.776       2.394       1.930       1.408      0.8972      0.3855      9.9255E-02   0.000    
  15    10.00       9.957       9.908       9.855       9.792       9.684       9.560       9.467       9.375       9.277    
        9.200       9.089       8.907       8.736       8.635       8.500       8.364       8.227       7.866       7.426    
        7.149       6.798       6.485       6.393       6.325       6.145       5.942       5.785       5.705       5.635    
        5.560       5.508       5.461       5.404       5.320       5.199       4.992       4.719       4.462       4.189    
        3.812       3.286       2.778       2.265       1.702       1.235      0.7707      0.3392      0.1018       0.000    
  16    10.00       9.968       9.920       9.856       9.758       9.625       9.518       9.442       9.358       9.257    
        9.154       8.993       8.782       8.618       8.470       8.311       8.219       7.939       7.417       7.016    
        6.740       6.399       6.287       6.234       6.103       5.876       5.714       5.645       5.628       5.584    
        5.533       5.492       5.454       5.392       5.291       5.139       4.889       4.644       4.443       4.153    
        3.725       3.157       2.572       2.000       1.521       1.058      0.6560      0.3216      0.1085       0.000    
  17    10.00       9.968       9.916       9.831       9.709       9.575       9.486       9.416       9.322       9.208    
        9.034       8.829       8.640       8.461       8.278       8.126       7.896       7.428       6.946       6.674    
        6.406       6.203       6.115       5.989       5.783       5.616       5.577       5.576       5.569       5.534    
        5.497       5.468       5.434       5.373       5.223       5.015       4.803       4.634       4.445       4.079    
        3.507       2.927       2.367       1.804       1.301      0.8560      0.5493      0.2872      0.1181       0.000    
  18    10.00       9.960       9.899       9.796       9.642       9.534       9.464       9.369       9.260       9.099    
        8.889       8.708       8.518       8.276       8.036       7.783       7.450       6.980       6.625       6.390    
        6.175       6.007       5.875       5.693       5.555       5.515       5.507       5.509       5.493       5.469    
        5.453       5.434       5.394       5.288       5.131       4.957       4.784       4.634       4.368       3.877    
        3.291       2.673       2.071       1.608       1.207      0.8021      0.4717      0.2375      0.1139       0.000    
  19    10.00       9.950       9.882       9.733       9.579       9.516       9.437       9.318       9.183       9.010    
        8.819       8.648       8.371       8.004       7.720       7.463       7.063       6.641       6.406       6.228    
        6.008       5.804       5.658       5.521       5.455       5.443       5.441       5.424       5.399       5.396    
        5.392       5.378       5.319       5.218       5.090       4.924       4.770       4.552       4.094       3.582    
        3.108       2.468       1.896       1.527       1.128      0.7237      0.4260      0.2419      0.1240       0.000    
  20    10.00       9.939       9.825       9.671       9.559       9.490       9.403       9.276       9.125       8.969    
        8.772       8.511       8.096       7.734       7.484       7.168       6.775       6.548       6.335       6.088    
        5.847       5.665       5.515       5.419       5.372       5.349       5.320       5.314       5.301       5.312    
        5.318       5.306       5.244       5.155       5.024       4.883       4.690       4.291       3.796       3.388    
        2.871       2.279       1.850       1.494       1.091      0.6428      0.3725      0.2520      0.1299       0.000    
  21    10.00       9.898       9.775       9.647       9.537       9.464       9.370       9.220       9.070       8.922    
        8.657       8.258       7.840       7.569       7.292       6.961       6.673       6.459       6.204       5.944    
        5.714       5.537       5.407       5.306       5.239       5.188       5.171       5.180       5.183       5.202    
        5.224       5.201       5.138       5.058       4.929       4.775       4.472       4.053       3.665       3.169    
        2.678       2.211       1.849       1.488      0.9207      0.5215      0.3774      0.2849      0.1366       0.000    
  22    10.00       9.871       9.724       9.609       9.521       9.433       9.300       9.162       9.029       8.823    
        8.484       8.035       7.706       7.463       7.153       6.816       6.542       6.317       6.085       5.841    
        5.614       5.427       5.252       5.096       5.008       4.988       5.004       5.017       5.055       5.079    
        5.103       5.077       5.027       4.944       4.819       4.667       4.360       3.962       3.454       2.974    
        2.618       2.245       1.809       1.203      0.7205      0.5207      0.3960      0.2639      9.7664E-02   0.000    
  23    10.00       9.833       9.690       9.599       9.506       9.375       9.230       9.127       8.959       8.702    
        8.307       7.926       7.689       7.386       6.985       6.652       6.438       6.255       6.040       5.777    
        5.538       5.320       5.070       4.777       4.563       4.605       4.741       4.829       4.908       4.962    
        4.985       4.975       4.932       4.854       4.739       4.570       4.261       3.770       3.260       2.922    
        2.595       2.125       1.496      0.9738      0.7103      0.5318      0.3807      0.2249      8.9525E-02   0.000    
  24    10.00       9.807       9.704       9.595       9.462       9.326       9.215       9.100       8.939       8.599    
        8.231       7.949       7.681       7.276       6.838       6.600       6.420       6.241       5.996       5.749    
        5.536       5.260       4.859       4.306       3.631       3.902       4.308       4.591       4.759       4.844    
        4.889       4.887       4.859       4.774       4.644       4.429       4.037       3.571       3.191       2.839    
        2.438       1.911       1.347      0.9464      0.7129      0.5190      0.3480      0.2440      0.1198       0.000    
  25    10.00       9.830       9.723       9.586       9.448       9.323       9.213       9.107       8.867       8.538    
        8.254       7.969       7.618       7.176       6.851       6.637       6.432       6.217       5.994       5.781    
        5.536       5.271       4.699       3.648       1.782       3.163       3.909       4.353       4.628       4.772    
        4.828       4.833       4.795       4.678       4.498       4.201       3.830       3.464       3.138       2.727    
        2.241       1.737       1.260      0.9400      0.7401      0.5402      0.3672      0.2558      0.1593       0.000    
  26    10.00       9.853       9.750       9.605       9.458       9.344       9.227       9.072       8.835       8.606    
        8.339       7.948       7.521       7.163       6.917       6.707       6.469       6.204       5.988       5.810    
        5.606       5.343       4.848       4.072       3.214       3.566       4.012       4.342       4.595       4.754    
        4.803       4.797       4.729       4.586       4.386       4.103       3.693       3.343       3.034       2.532    
        1.980       1.535       1.250       1.027      0.7989      0.5837      0.4006      0.2782      0.1626       0.000    
  27    10.00       9.883       9.756       9.627       9.500       9.365       9.235       9.079       8.883       8.674    
        8.338       7.901       7.525       7.228       7.019       6.778       6.468       6.191       6.022       5.875    
        5.715       5.471       5.094       4.633       4.164       4.126       4.292       4.500       4.688       4.784    
        4.801       4.780       4.698       4.541       4.305       3.921       3.532       3.239       2.766       2.231    
        1.798       1.510       1.294       1.099      0.8739      0.6376      0.4356      0.3064      0.1934       0.000    
  28    10.00       9.891       9.788       9.671       9.546       9.404       9.261       9.110       8.940       8.696    
        8.306       7.925       7.597       7.304       7.083       6.847       6.593       6.324       6.082       5.929    
        5.801       5.626       5.381       5.043       4.752       4.577       4.605       4.737       4.802       4.831    
        4.819       4.777       4.675       4.471       4.157       3.755       3.412       2.995       2.496       2.111    
        1.799       1.553       1.342       1.138      0.9190      0.6964      0.4947      0.3493      0.1997       0.000    
  29    10.00       9.899       9.798       9.707       9.585       9.458       9.317       9.162       8.976       8.652    
        8.289       7.967       7.656       7.408       7.157       6.905       6.674       6.457       6.224       6.020    
        5.882       5.747       5.583       5.379       5.101       4.960       4.938       4.942       4.945       4.911    
        4.856       4.768       4.643       4.380       3.986       3.621       3.265       2.823       2.419       2.133    
        1.878       1.609       1.369       1.173      0.9756      0.7373      0.5233      0.3654      0.2027       0.000    
  30    10.00       9.913       9.830       9.750       9.641       9.515       9.389       9.213       8.965       8.670    
        8.304       7.956       7.702       7.455       7.218       6.989       6.802       6.599       6.370       6.155    
        5.982       5.868       5.727       5.588       5.433       5.308       5.264       5.167       5.106       5.013    
        4.892       4.739       4.551       4.269       3.948       3.597       3.213       2.794       2.483       2.219    
        1.915       1.644       1.435       1.212      0.9757      0.7642      0.5585      0.3886      0.2184       0.000    
  31    10.00       9.932       9.863       9.787       9.707       9.605       9.463       9.246       8.964       8.653    
        8.303       7.992       7.760       7.519       7.298       7.089       6.901       6.742       6.513       6.295    
        6.136       6.012       5.902       5.795       5.719       5.604       5.479       5.372       5.241       5.096    
        4.904       4.695       4.494       4.254       3.943       3.567       3.172       2.821       2.597       2.347    
        2.009       1.710       1.470       1.243       1.023      0.8054      0.5928      0.4095      0.2121       0.000    
  32    10.00       9.941       9.892       9.827       9.751       9.656       9.505       9.259       9.003       8.709    
        8.348       8.059       7.840       7.594       7.361       7.190       7.025       6.837       6.653       6.437    
        6.274       6.143       6.047       5.961       5.872       5.777       5.630       5.499       5.345       5.147    
        4.917       4.694       4.473       4.236       3.928       3.587       3.274       2.971       2.714       2.429    
        2.117       1.819       1.565       1.303       1.063      0.8778      0.6552      0.4027      0.1800       0.000    
  33    10.00       9.951       9.912       9.857       9.780       9.680       9.487       9.245       9.039       8.777    
        8.447       8.172       7.916       7.642       7.439       7.292       7.149       6.956       6.752       6.570    
        6.388       6.257       6.142       6.045       5.962       5.869       5.729       5.560       5.401       5.208    
        4.973       4.759       4.521       4.220       3.927       3.619       3.364       3.125       2.837       2.522    
        2.250       1.967       1.686       1.415       1.161      0.9532      0.7033      0.4063      0.1767       0.000    
  34    10.00       9.959       9.931       9.884       9.786       9.640       9.464       9.296       9.083       8.825    
        8.546       8.249       7.966       7.700       7.530       7.409       7.254       7.071       6.844       6.671    
        6.512       6.350       6.226       6.125       6.045       5.935       5.780       5.618       5.442       5.222    
        5.017       4.831       4.604       4.308       4.007       3.717       3.475       3.240       2.938       2.649    
        2.403       2.130       1.823       1.551       1.293       1.054      0.7548      0.4585      0.2404       0.000    
  35    10.00       9.966       9.931       9.866       9.747       9.606       9.481       9.337       9.167       8.890    
        8.587       8.296       8.012       7.790       7.635       7.507       7.345       7.153       6.937       6.732    
        6.587       6.439       6.312       6.216       6.126       6.015       5.840       5.646       5.443       5.217    
        5.058       4.874       4.637       4.418       4.162       3.852       3.578       3.377       3.086       2.772    
        2.534       2.253       1.945       1.677       1.407       1.145      0.8665      0.5744      0.2842       0.000    
  36    10.00       9.960       9.904       9.834       9.724       9.594       9.490       9.369       9.187       8.925    
        8.600       8.297       8.094       7.919       7.766       7.605       7.416       7.226       7.004       6.755    
        6.596       6.484       6.370       6.289       6.197       6.060       5.872       5.657       5.414       5.199    
        5.056       4.907       4.695       4.480       4.263       3.983       3.705       3.485       3.223       2.879    
        2.616       2.304       1.996       1.790       1.528       1.236      0.9564      0.6510      0.3186       0.000    
  37    10.00       9.939       9.881       9.812       9.705       9.593       9.476       9.362       9.198       8.899    
        8.565       8.330       8.207       8.041       7.853       7.695       7.472       7.242       6.976       6.730    
        6.609       6.517       6.408       6.323       6.219       6.058       5.868       5.603       5.375       5.222    
        5.087       4.920       4.709       4.537       4.313       4.048       3.828       3.615       3.320       2.942    
        2.597       2.303       2.088       1.874       1.612       1.334       1.054      0.7182      0.3944       0.000    
  38    10.00       9.932       9.858       9.787       9.694       9.589       9.468       9.345       9.161       8.883    
        8.633       8.444       8.286       8.138       7.941       7.697       7.454       7.199       6.908       6.733    
        6.634       6.518       6.417       6.342       6.231       6.043       5.771       5.518       5.387       5.266    
        5.122       4.943       4.748       4.575       4.356       4.111       3.929       3.713       3.336       2.919    
        2.619       2.372       2.158       1.938       1.705       1.423       1.144      0.8306      0.4106       0.000    
  39    10.00       9.914       9.843       9.779       9.691       9.573       9.447       9.323       9.151       8.924    
        8.728       8.584       8.409       8.212       7.944       7.650       7.379       7.089       6.877       6.755    
        6.621       6.490       6.412       6.342       6.238       5.996       5.712       5.544       5.421       5.295    
        5.134       4.963       4.773       4.598       4.431       4.227       3.988       3.726       3.354       2.965    
        2.648       2.392       2.224       2.039       1.777       1.498       1.215      0.8645      0.4052       0.000    
  40    10.00       9.905       9.838       9.774       9.686       9.566       9.444       9.321       9.169       8.981    
        8.820       8.695       8.492       8.200       7.874       7.580       7.295       7.042       6.881       6.742    
        6.589       6.472       6.400       6.320       6.183       5.971       5.768       5.594       5.453       5.322    
        5.165       4.978       4.798       4.650       4.501       4.295       4.019       3.744       3.366       2.948    
        2.650       2.447       2.262       2.103       1.828       1.522       1.263      0.8668      0.4036       0.000    
  41    10.00       9.914       9.838       9.762       9.668       9.574       9.472       9.359       9.209       9.039    
        8.886       8.742       8.493       8.155       7.819       7.543       7.262       7.016       6.862       6.713    
        6.561       6.456       6.381       6.285       6.141       5.977       5.836       5.666       5.489       5.335    
        5.183       5.012       4.837       4.708       4.549       4.344       4.067       3.687       3.252       2.930    
        2.714       2.517       2.325       2.105       1.818       1.526       1.304      0.9233      0.4187       0.000    
  42    10.00       9.915       9.829       9.763       9.694       9.607       9.499       9.372       9.246       9.116    
        8.929       8.690       8.405       8.084       7.774       7.521       7.246       7.003       6.839       6.672    
        6.530       6.437       6.357       6.268       6.133       6.015       5.894       5.703       5.505       5.365    
        5.238       5.051       4.863       4.736       4.589       4.370       4.030       3.581       3.183       2.942    
        2.779       2.604       2.359       2.066       1.790       1.562       1.332      0.9737      0.4805       0.000    
  43    10.00       9.909       9.837       9.780       9.725       9.643       9.538       9.418       9.280       9.088    
        8.855       8.611       8.344       8.011       7.730       7.496       7.250       7.006       6.799       6.644    
        6.513       6.420       6.348       6.275       6.158       6.033       5.912       5.715       5.541       5.437    
        5.281       5.079       4.897       4.766       4.594       4.311       3.918       3.492       3.201       3.016    
        2.842       2.641       2.340       2.039       1.796       1.575       1.377      0.9874      0.4513       0.000    
  44    10.00       9.908       9.846       9.795       9.730       9.670       9.583       9.427       9.228       9.011    
        8.816       8.569       8.248       7.970       7.743       7.477       7.206       6.954       6.747       6.610    
        6.513       6.430       6.356       6.278       6.178       6.050       5.886       5.722       5.604       5.479    
        5.339       5.162       4.953       4.755       4.545       4.227       3.815       3.464       3.239       3.060    
        2.885       2.646       2.355       2.095       1.834       1.598       1.355      0.8915      0.4100       0.000    
  45    10.00       9.919       9.861       9.795       9.732       9.680       9.543       9.360       9.160       8.974    
        8.813       8.487       8.153       7.951       7.711       7.417       7.124       6.890       6.721       6.609    
        6.534       6.455       6.373       6.281       6.169       6.044       5.905       5.778       5.673       5.543    
        5.382       5.198       4.983       4.733       4.482       4.139       3.752       3.475       3.304       3.120    
        2.886       2.612       2.363       2.126       1.895       1.659       1.266      0.7924      0.3988       0.000    
  46    10.00       9.934       9.873       9.796       9.725       9.623       9.475       9.337       9.170       8.970    
        8.707       8.398       8.130       7.873       7.619       7.335       7.063       6.889       6.749       6.641    
        6.564       6.488       6.385       6.269       6.161       6.055       5.945       5.827       5.722       5.608    
        5.462       5.268       5.024       4.727       4.369       4.012       3.725       3.530       3.350       3.159    
        2.882       2.590       2.342       2.154       1.934       1.627       1.178      0.7570      0.3732       0.000    
  47    10.00       9.947       9.889       9.813       9.691       9.557       9.431       9.323       9.170       8.908    
        8.594       8.310       8.078       7.864       7.593       7.284       7.043       6.878       6.766       6.676    
        6.593       6.504       6.396       6.275       6.168       6.084       5.992       5.876       5.754       5.642    
        5.515       5.353       5.030       4.613       4.263       4.006       3.765       3.597       3.438       3.173    
        2.836       2.527       2.302       2.172       1.928       1.552       1.115      0.7304      0.3691       0.000    
  48    10.00       9.952       9.893       9.781       9.656       9.540       9.413       9.304       9.150       8.855    
        8.512       8.274       8.084       7.822       7.507       7.228       7.047       6.880       6.769       6.699    
        6.615       6.509       6.392       6.280       6.192       6.125       6.042       5.914       5.774       5.653    
        5.520       5.325       4.989       4.643       4.330       4.046       3.831       3.658       3.456       3.119    
        2.756       2.518       2.339       2.109       1.789       1.455       1.080      0.7359      0.3896       0.000    
  49    10.00       9.950       9.860       9.752       9.658       9.534       9.411       9.296       9.102       8.790    
        8.483       8.256       8.018       7.753       7.515       7.255       7.003       6.848       6.780       6.715    
        6.636       6.513       6.378       6.281       6.213       6.163       6.068       5.921       5.773       5.663    
        5.519       5.263       4.966       4.721       4.459       4.147       3.869       3.655       3.417       3.056    
        2.764       2.554       2.307       1.975       1.691       1.390       1.062      0.7482      0.3811       0.000    
  50    10.00       9.937       9.838       9.740       9.664       9.548       9.412       9.265       9.056       8.809    
        8.498       8.194       7.947       7.736       7.544       7.253       6.966       6.849       6.789       6.726    
        6.649       6.512       6.367       6.279       6.225       6.179       6.074       5.915       5.774       5.662    
        5.505       5.236       5.007       4.797       4.514       4.203       3.922       3.638       3.295       2.975    
        2.820       2.600       2.239       1.905       1.667       1.380       1.095      0.7309      0.3002       0.000    

 HEAD WILL BE SAVED ON UNIT   51 AT END OF TIME STEP  95, STRESS PERIOD    2

 DRAWDOWN WILL BE SAVED ON UNIT   52 AT END OF TIME STEP  95, STRESS PERIOD    2
1
  VOLUMETRIC BUDGET FOR ENTIRE MODEL AT END OF TIME STEP 95 IN STRESS PERIOD   2
  ------------------------------------------------------------------------------

     CUMULATIVE VOLUMES      L**3       RATES FOR THIS TIME STEP      L**3/T
     ------------------                 ------------------------

           IN:                                      IN:
           ---                                      ---
             STORAGE =       43104.8086               STORAGE =         370.7644
       CONSTANT HEAD =       55936.1680         CONSTANT HEAD =         656.5670
               WELLS =           0.0000                 WELLS =           0.0000

            TOTAL IN =       99040.9766              TOTAL IN =        1027.3313

          OUT:                                     OUT:
          ----                                     ----
             STORAGE =       9.3745E-03               STORAGE =           0.0000
       CONSTANT HEAD =       51540.9453         CONSTANT HEAD =         527.3317
               WELLS =       47500.0000                 WELLS =         500.0000

           TOTAL OUT =       99040.9531             TOTAL OUT =        1027.3317

            IN - OUT =       2.3438E-02              IN - OUT =      -3.6621E-04

 PERCENT DISCREPANCY =           0.00     PERCENT DISCREPANCY =           0.00






          TIME SUMMARY AT END OF TIME STEP  95 IN STRESS PERIOD    2
                    SECONDS     MINUTES      HOURS       DAYS        YEARS
                    -----------------------------------------------------------
   TIME STEP LENGTH  86400.      1440.0      24.000      1.0000     2.73785E-03
 STRESS PERIOD TIME 8.20800E+06 1.36800E+05  2280.0      95.000     0.26010    
         TOTAL TIME 8.29440E+06 1.38240E+05  2304.0      96.000     0.26283    
1
 
 SOLVING FOR HEAD 

 OUTPUT CONTROL FOR STRESS PERIOD    2   TIME STEP  96
    SAVE HEAD FOR ALL LAYERS
    SAVE DRAWDOWN FOR ALL LAYERS
    SAVE BUDGET
    PRINT HEAD FOR ALL LAYERS
    PRINT BUDGET
 UBDSV1 SAVING "         STORAGE" ON UNIT  53 AT TIME STEP 96, STRESS PERIOD   2
 UBDSV2 SAVING "   CONSTANT HEAD" ON UNIT  53 AT TIME STEP 96, STRESS PERIOD   2
 UBDSV1 SAVING "FLOW RIGHT FACE " ON UNIT  53 AT TIME STEP 96, STRESS PERIOD   2
 UBDSV1 SAVING "FLOW FRONT FACE " ON UNIT  53 AT TIME STEP 96, STRESS PERIOD   2
1
              HEAD IN LAYER   1 AT END OF TIME STEP  96 IN STRESS PERIOD    2
  ---------------------------------------------------------------------------

            1           2           3           4           5           6           7           8           9          10
           11          12          13          14          15          16          17          18          19          20
           21          22          23          24          25          26          27          28          29          30
           31          32          33          34          35          36          37          38          39          40
           41          42          43          44          45          46          47          48          49          50
 ........................................................................................................................
   1    10.00       9.950       9.881       9.813       9.757       9.687       9.620       9.549       9.454       9.376    
        9.330       9.285       9.234       9.184       9.104       9.017       8.922       8.847       8.814       8.778    
        8.733       8.695       8.657       8.609       8.543       8.429       8.293       8.161       8.011       7.862    
        7.651       7.317       6.924       6.512       6.051       5.625       5.266       4.934       4.482       3.992    
        3.577       3.168       2.604       2.070       1.696       1.322       1.008      0.8058      0.5344       0.000    
   2    10.00       9.949       9.888       9.820       9.759       9.695       9.620       9.527       9.436       9.376    
        9.335       9.294       9.255       9.193       9.101       9.010       8.923       8.850       8.814       8.773    
        8.728       8.699       8.668       8.617       8.541       8.432       8.294       8.157       8.016       7.867    
        7.639       7.294       6.880       6.413       5.948       5.539       5.218       4.892       4.434       3.974    
        3.555       3.064       2.556       2.134       1.764       1.415       1.058      0.7652      0.4086       0.000    
   3    10.00       9.944       9.886       9.823       9.762       9.688       9.594       9.506       9.448       9.393    
        9.346       9.310       9.272       9.213       9.121       9.008       8.916       8.856       8.811       8.769    
        8.731       8.700       8.669       8.605       8.523       8.412       8.281       8.176       8.027       7.851    
        7.556       7.153       6.709       6.254       5.829       5.452       5.167       4.831       4.333       3.886    
        3.538       3.093       2.628       2.224       1.840       1.490       1.067      0.6563      0.2887       0.000    
   4    10.00       9.949       9.889       9.821       9.745       9.660       9.570       9.505       9.455       9.404    
        9.363       9.332       9.290       9.226       9.141       9.018       8.915       8.859       8.811       8.771    
        8.728       8.691       8.651       8.582       8.498       8.390       8.261       8.144       8.026       7.804    
        7.419       6.922       6.446       6.098       5.785       5.423       5.059       4.631       4.211       3.888    
        3.581       3.190       2.727       2.330       1.928       1.504       1.017      0.5825      0.2714       0.000    
   5    10.00       9.945       9.882       9.804       9.725       9.646       9.568       9.512       9.461       9.416    
        9.380       9.348       9.299       9.224       9.125       9.012       8.924       8.863       8.813       8.758    
        8.707       8.669       8.619       8.549       8.470       8.344       8.216       8.115       7.997       7.709    
        7.197       6.646       6.252       5.991       5.710       5.347       4.931       4.510       4.218       3.947    
        3.672       3.272       2.791       2.446       2.039       1.484      0.9251      0.5375      0.2704       0.000    
   6    10.00       9.932       9.857       9.796       9.722       9.640       9.574       9.523       9.470       9.430    
        9.396       9.357       9.292       9.205       9.120       9.026       8.931       8.854       8.790       8.726    
        8.681       8.640       8.594       8.519       8.402       8.281       8.186       8.076       7.876       7.456    
        6.883       6.381       6.081       5.888       5.662       5.262       4.813       4.488       4.274       4.040    
        3.778       3.418       2.944       2.516       2.013       1.419      0.8294      0.4727      0.2641       0.000    
   7    10.00       9.912       9.842       9.782       9.711       9.652       9.589       9.537       9.492       9.449    
        9.405       9.348       9.269       9.184       9.107       9.030       8.924       8.819       8.750       8.698    
        8.654       8.609       8.562       8.460       8.340       8.244       8.139       7.957       7.611       7.074    
        6.534       6.146       5.965       5.818       5.528       5.128       4.837       4.560       4.334       4.175    
        3.913       3.543       3.037       2.484       1.864       1.182      0.6951      0.4798      0.2430       0.000    
   8    10.00       9.907       9.841       9.777       9.714       9.662       9.607       9.557       9.513       9.471    
        9.407       9.324       9.241       9.167       9.094       8.998       8.871       8.773       8.720       8.671    
        8.619       8.581       8.501       8.391       8.283       8.169       7.967       7.677       7.200       6.736    
        6.340       6.041       5.907       5.727       5.396       5.092       4.853       4.651       4.475       4.291    
        4.020       3.566       2.983       2.352       1.645       1.067      0.7354      0.4706      0.2169       0.000    
   9    10.00       9.911       9.837       9.774       9.729       9.684       9.632       9.582       9.532       9.483    
        9.401       9.298       9.213       9.137       9.049       8.941       8.826       8.740       8.686       8.634    
        8.588       8.525       8.412       8.310       8.197       8.035       7.738       7.300       6.829       6.500    
        6.191       5.980       5.831       5.590       5.288       5.057       4.889       4.742       4.593       4.392    
        4.057       3.585       2.966       2.263       1.613       1.105      0.7502      0.4668      0.2315       0.000    
  10    10.00       9.909       9.834       9.782       9.742       9.699       9.652       9.608       9.550       9.472    
        9.372       9.268       9.185       9.101       9.008       8.882       8.768       8.699       8.652       8.600    
        8.552       8.448       8.326       8.213       8.054       7.805       7.357       6.886       6.524       6.278    
        6.099       5.930       5.725       5.479       5.230       5.061       4.943       4.821       4.655       4.422    
        4.062       3.547       2.886       2.259       1.746       1.265      0.8036      0.4959      0.2614       0.000    
  11    10.00       9.897       9.839       9.796       9.755       9.717       9.676       9.616       9.532       9.445    
        9.344       9.243       9.162       9.050       8.922       8.812       8.731       8.667       8.620       8.563    
        8.474       8.339       8.163       7.993       7.712       7.341       6.945       6.640       6.355       6.184    
        6.034       5.808       5.580       5.400       5.239       5.122       5.005       4.849       4.652       4.378    
        4.042       3.588       2.922       2.352       1.899       1.439      0.9270      0.4921      0.1976       0.000    
  12    10.00       9.906       9.848       9.803       9.768       9.728       9.682       9.601       9.501       9.411    
        9.315       9.213       9.104       8.969       8.863       8.769       8.684       8.631       8.569       8.480    
        8.305       8.072       7.825       7.570       7.222       6.940       6.740       6.425       6.195       6.067    
        5.909       5.697       5.523       5.375       5.276       5.170       5.032       4.855       4.620       4.335    
        4.005       3.562       2.954       2.447       2.039       1.543      0.9769      0.4665      0.1551       0.000    
  13    10.00       9.926       9.873       9.823       9.779       9.733       9.664       9.563       9.459       9.370    
        9.269       9.166       9.050       8.910       8.790       8.696       8.636       8.567       8.478       8.264    
        7.942       7.660       7.394       7.077       6.808       6.686       6.437       6.152       6.040       5.937    
        5.771       5.593       5.473       5.379       5.300       5.203       5.045       4.825       4.596       4.304    
        3.978       3.529       2.903       2.430       2.052       1.510      0.9102      0.4221      0.1220       0.000    
  14    10.00       9.946       9.897       9.844       9.791       9.720       9.619       9.512       9.419       9.317    
        9.216       9.122       8.984       8.826       8.716       8.642       8.541       8.433       8.219       7.841    
        7.500       7.251       6.903       6.647       6.530       6.394       6.137       5.977       5.862       5.762    
        5.625       5.524       5.458       5.388       5.308       5.210       5.031       4.792       4.547       4.250    
        3.902       3.361       2.772       2.391       1.927       1.406      0.8962      0.3851      9.9150E-02   0.000    
  15    10.00       9.957       9.908       9.854       9.792       9.683       9.559       9.466       9.373       9.274    
        9.198       9.086       8.904       8.732       8.631       8.496       8.359       8.222       7.860       7.420    
        7.142       6.790       6.477       6.385       6.316       6.136       5.933       5.776       5.696       5.627    
        5.551       5.500       5.453       5.395       5.312       5.191       4.985       4.712       4.456       4.183    
        3.807       3.281       2.774       2.262       1.700       1.234      0.7698      0.3388      0.1017       0.000    
  16    10.00       9.968       9.920       9.855       9.757       9.623       9.516       9.440       9.356       9.255    
        9.152       8.990       8.778       8.614       8.466       8.306       8.214       7.933       7.410       7.009    
        6.732       6.390       6.279       6.225       6.094       5.867       5.705       5.636       5.618       5.575    
        5.524       5.483       5.446       5.384       5.283       5.131       4.882       4.637       4.437       4.147    
        3.719       3.153       2.569       1.997       1.519       1.057      0.6552      0.3212      0.1084       0.000    
  17    10.00       9.968       9.916       9.831       9.708       9.573       9.484       9.414       9.319       9.205    
        9.031       8.826       8.636       8.456       8.273       8.120       7.890       7.421       6.939       6.666    
        6.397       6.194       6.106       5.979       5.773       5.607       5.567       5.566       5.559       5.525    
        5.488       5.459       5.425       5.365       5.214       5.007       4.795       4.626       4.438       4.073    
        3.501       2.923       2.364       1.802       1.299      0.8549      0.5487      0.2869      0.1179       0.000    
  18    10.00       9.960       9.898       9.796       9.641       9.533       9.462       9.366       9.257       9.096    
        8.885       8.704       8.513       8.271       8.030       7.777       7.443       6.972       6.617       6.381    
        6.166       5.998       5.865       5.683       5.546       5.506       5.498       5.499       5.483       5.460    
        5.443       5.425       5.385       5.279       5.122       4.949       4.776       4.626       4.361       3.871    
        3.286       2.669       2.068       1.606       1.205      0.8011      0.4711      0.2373      0.1137       0.000    
  19    10.00       9.950       9.882       9.732       9.578       9.514       9.434       9.315       9.180       9.007    
        8.815       8.644       8.366       7.998       7.714       7.455       7.055       6.632       6.397       6.219    
        5.998       5.794       5.649       5.511       5.445       5.433       5.431       5.414       5.389       5.387    
        5.383       5.369       5.309       5.209       5.081       4.915       4.762       4.544       4.088       3.577    
        3.103       2.464       1.893       1.525       1.127      0.7228      0.4255      0.2416      0.1238       0.000    
  20    10.00       9.939       9.824       9.669       9.557       9.488       9.401       9.273       9.122       8.965    
        8.767       8.506       8.090       7.727       7.477       7.160       6.767       6.539       6.326       6.079    
        5.837       5.656       5.505       5.409       5.362       5.339       5.310       5.304       5.291       5.302    
        5.308       5.297       5.234       5.145       5.015       4.874       4.682       4.283       3.790       3.382    
        2.866       2.276       1.848       1.492       1.090      0.6420      0.3721      0.2517      0.1297       0.000    
  21    10.00       9.898       9.775       9.645       9.535       9.462       9.368       9.217       9.067       8.918    
        8.652       8.253       7.833       7.562       7.284       6.953       6.665       6.450       6.194       5.934    
        5.705       5.528       5.397       5.296       5.229       5.178       5.161       5.169       5.173       5.191    
        5.214       5.190       5.128       5.048       4.919       4.766       4.464       4.046       3.659       3.164    
        2.674       2.208       1.846       1.486      0.9196      0.5209      0.3770      0.2845      0.1365       0.000    
  22    10.00       9.871       9.723       9.607       9.519       9.431       9.298       9.158       9.025       8.819    
        8.479       8.028       7.699       7.455       7.145       6.807       6.533       6.307       6.076       5.831    
        5.604       5.417       5.242       5.086       4.998       4.977       4.994       5.007       5.045       5.069    
        5.093       5.066       5.017       4.934       4.810       4.658       4.352       3.955       3.448       2.969    
        2.614       2.242       1.807       1.202      0.7197      0.5201      0.3956      0.2636      9.7558E-02   0.000    
  23    10.00       9.833       9.688       9.597       9.504       9.372       9.227       9.123       8.955       8.697    
        8.301       7.919       7.682       7.378       6.976       6.643       6.429       6.246       6.030       5.767    
        5.528       5.310       5.060       4.767       4.553       4.595       4.730       4.818       4.898       4.952    
        4.974       4.964       4.922       4.844       4.730       4.561       4.253       3.763       3.255       2.917    
        2.591       2.122       1.494      0.9727      0.7095      0.5312      0.3803      0.2246      8.9433E-02   0.000    
  24    10.00       9.807       9.703       9.593       9.460       9.323       9.212       9.097       8.935       8.594    
        8.225       7.942       7.674       7.268       6.830       6.591       6.411       6.231       5.987       5.739    
        5.527       5.250       4.849       4.296       3.621       3.891       4.298       4.580       4.748       4.834    
        4.879       4.877       4.848       4.764       4.634       4.420       4.030       3.565       3.185       2.835    
        2.434       1.908       1.345      0.9454      0.7122      0.5185      0.3477      0.2438      0.1197       0.000    
  25    10.00       9.829       9.722       9.584       9.446       9.320       9.210       9.104       8.863       8.533    
        8.248       7.963       7.611       7.168       6.842       6.628       6.423       6.207       5.984       5.771    
        5.526       5.261       4.689       3.638       1.771       3.153       3.898       4.342       4.617       4.761    
        4.817       4.822       4.785       4.668       4.488       4.193       3.823       3.458       3.133       2.722    
        2.238       1.735       1.259      0.9391      0.7394      0.5396      0.3668      0.2556      0.1591       0.000    
  26    10.00       9.852       9.749       9.604       9.456       9.342       9.224       9.068       8.831       8.601    
        8.334       7.942       7.513       7.155       6.909       6.698       6.460       6.195       5.978       5.800    
        5.597       5.333       4.838       4.062       3.204       3.555       4.001       4.331       4.584       4.743    
        4.792       4.786       4.718       4.576       4.376       4.095       3.686       3.337       3.030       2.528    
        1.977       1.534       1.249       1.026      0.7981      0.5832      0.4003      0.2779      0.1624       0.000    
  27    10.00       9.883       9.755       9.625       9.498       9.363       9.232       9.076       8.880       8.669    
        8.333       7.895       7.518       7.220       7.011       6.769       6.459       6.182       6.013       5.866    
        5.706       5.462       5.084       4.623       4.154       4.115       4.281       4.489       4.676       4.773    
        4.790       4.769       4.687       4.531       4.296       3.914       3.526       3.233       2.762       2.228    
        1.796       1.508       1.293       1.098      0.8731      0.6370      0.4353      0.3062      0.1932       0.000    
  28    10.00       9.891       9.787       9.669       9.544       9.402       9.258       9.107       8.936       8.691    
        8.301       7.919       7.590       7.296       7.075       6.838       6.584       6.315       6.073       5.920    
        5.792       5.617       5.371       5.033       4.742       4.567       4.594       4.726       4.791       4.820    
        4.808       4.767       4.665       4.462       4.149       3.748       3.406       2.990       2.492       2.109    
        1.797       1.552       1.341       1.137      0.9182      0.6957      0.4942      0.3490      0.1995       0.000    
  29    10.00       9.899       9.798       9.705       9.584       9.456       9.315       9.159       8.973       8.647    
        8.284       7.961       7.649       7.401       7.149       6.897       6.666       6.449       6.215       6.011    
        5.872       5.737       5.573       5.369       5.091       4.950       4.927       4.931       4.934       4.900    
        4.845       4.758       4.633       4.371       3.979       3.615       3.260       2.820       2.417       2.131    
        1.876       1.607       1.367       1.172      0.9748      0.7367      0.5229      0.3651      0.2025       0.000    
  30    10.00       9.913       9.829       9.749       9.640       9.514       9.387       9.211       8.961       8.666    
        8.299       7.950       7.695       7.448       7.210       6.982       6.794       6.591       6.362       6.146    
        5.973       5.858       5.718       5.578       5.423       5.298       5.254       5.156       5.096       5.003    
        4.882       4.730       4.543       4.262       3.942       3.592       3.209       2.790       2.480       2.217    
        1.913       1.642       1.433       1.211      0.9749      0.7636      0.5581      0.3883      0.2182       0.000    
  31    10.00       9.931       9.863       9.786       9.706       9.604       9.461       9.244       8.961       8.649    
        8.298       7.986       7.754       7.512       7.291       7.081       6.893       6.734       6.504       6.286    
        6.127       6.003       5.893       5.786       5.709       5.595       5.469       5.362       5.231       5.087    
        4.895       4.687       4.487       4.248       3.937       3.563       3.168       2.818       2.594       2.344    
        2.007       1.708       1.469       1.242       1.023      0.8048      0.5923      0.4091      0.2119       0.000    
  32    10.00       9.941       9.892       9.826       9.750       9.655       9.504       9.256       9.000       8.706    
        8.343       8.054       7.834       7.587       7.354       7.183       7.018       6.829       6.645       6.429    
        6.266       6.134       6.038       5.952       5.862       5.768       5.620       5.490       5.336       5.138    
        4.909       4.687       4.466       4.230       3.923       3.582       3.271       2.968       2.711       2.427    
        2.115       1.818       1.564       1.302       1.062      0.8772      0.6548      0.4025      0.1799       0.000    
  33    10.00       9.950       9.912       9.857       9.780       9.679       9.485       9.243       9.036       8.774    
        8.442       8.167       7.910       7.636       7.432       7.285       7.141       6.948       6.744       6.562    
        6.380       6.248       6.134       6.036       5.954       5.860       5.721       5.551       5.393       5.200    
        4.966       4.753       4.516       4.215       3.923       3.615       3.361       3.122       2.834       2.520    
        2.248       1.965       1.685       1.414       1.160      0.9527      0.7029      0.4061      0.1766       0.000    
  34    10.00       9.959       9.930       9.884       9.785       9.639       9.462       9.294       9.081       8.822    
        8.542       8.244       7.960       7.694       7.524       7.402       7.247       7.064       6.837       6.663    
        6.504       6.342       6.218       6.117       6.036       5.927       5.772       5.610       5.435       5.215    
        5.011       4.825       4.599       4.303       4.003       3.714       3.472       3.237       2.936       2.647    
        2.402       2.129       1.822       1.550       1.292       1.054      0.7544      0.4583      0.2402       0.000    
  35    10.00       9.966       9.931       9.866       9.746       9.605       9.479       9.335       9.164       8.887    
        8.583       8.291       8.007       7.785       7.629       7.501       7.338       7.147       6.930       6.725    
        6.580       6.432       6.305       6.208       6.119       6.008       5.833       5.639       5.436       5.211    
        5.053       4.869       4.633       4.415       4.158       3.849       3.575       3.375       3.084       2.771    
        2.532       2.252       1.944       1.676       1.407       1.145      0.8661      0.5741      0.2840       0.000    
  36    10.00       9.959       9.904       9.834       9.723       9.593       9.489       9.367       9.185       8.923    
        8.597       8.293       8.090       7.914       7.761       7.599       7.409       7.219       6.997       6.749    
        6.589       6.477       6.364       6.283       6.190       6.053       5.865       5.651       5.409       5.195    
        5.052       4.903       4.691       4.477       4.260       3.981       3.703       3.483       3.221       2.878    
        2.615       2.303       1.995       1.790       1.528       1.236      0.9560      0.6508      0.3184       0.000    
  37    10.00       9.939       9.881       9.811       9.704       9.592       9.474       9.360       9.196       8.896    
        8.561       8.326       8.203       8.036       7.847       7.690       7.466       7.236       6.970       6.724    
        6.604       6.511       6.402       6.317       6.213       6.053       5.863       5.599       5.371       5.218    
        5.083       4.917       4.706       4.534       4.311       4.046       3.826       3.613       3.318       2.941    
        2.596       2.302       2.087       1.873       1.611       1.334       1.054      0.7179      0.3942       0.000    
  38    10.00       9.931       9.858       9.786       9.694       9.588       9.466       9.343       9.159       8.880    
        8.630       8.440       8.282       8.134       7.936       7.692       7.449       7.194       6.903       6.727    
        6.629       6.513       6.412       6.337       6.226       6.038       5.766       5.514       5.384       5.262    
        5.118       4.940       4.745       4.573       4.354       4.109       3.927       3.711       3.335       2.918    
        2.618       2.371       2.157       1.937       1.704       1.423       1.144      0.8303      0.4104       0.000    
  39    10.00       9.913       9.843       9.778       9.691       9.572       9.446       9.321       9.150       8.922    
        8.726       8.581       8.406       8.208       7.940       7.645       7.375       7.084       6.872       6.751    
        6.616       6.485       6.407       6.337       6.233       5.992       5.708       5.541       5.418       5.292    
        5.131       4.960       4.771       4.596       4.428       4.225       3.987       3.724       3.353       2.964    
        2.646       2.391       2.223       2.038       1.776       1.497       1.214      0.8642      0.4050       0.000    
  40    10.00       9.905       9.838       9.774       9.685       9.565       9.442       9.320       9.167       8.979    
        8.818       8.693       8.489       8.196       7.870       7.577       7.291       7.038       6.877       6.738    
        6.585       6.468       6.396       6.316       6.179       5.968       5.765       5.591       5.450       5.320    
        5.162       4.976       4.795       4.647       4.498       4.293       4.017       3.742       3.364       2.947    
        2.649       2.447       2.261       2.103       1.827       1.522       1.263      0.8665      0.4035       0.000    
  41    10.00       9.914       9.838       9.761       9.667       9.573       9.471       9.358       9.208       9.037    
        8.884       8.739       8.490       8.152       7.816       7.540       7.258       7.013       6.858       6.710    
        6.558       6.452       6.377       6.282       6.138       5.974       5.833       5.663       5.486       5.332    
        5.180       5.010       4.835       4.706       4.547       4.342       4.065       3.685       3.251       2.929    
        2.712       2.516       2.324       2.104       1.817       1.525       1.303      0.9230      0.4185       0.000    
  42    10.00       9.915       9.829       9.763       9.693       9.607       9.499       9.371       9.244       9.114    
        8.927       8.688       8.403       8.082       7.771       7.518       7.243       7.000       6.836       6.669    
        6.527       6.434       6.353       6.265       6.130       6.012       5.891       5.700       5.503       5.363    
        5.235       5.048       4.861       4.734       4.587       4.368       4.029       3.580       3.181       2.941    
        2.778       2.603       2.358       2.065       1.790       1.561       1.331      0.9734      0.4803       0.000    
  43    10.00       9.908       9.836       9.779       9.725       9.643       9.537       9.417       9.278       9.086    
        8.853       8.609       8.342       8.008       7.727       7.494       7.247       7.003       6.796       6.641    
        6.510       6.417       6.345       6.272       6.155       6.030       5.909       5.712       5.539       5.434    
        5.279       5.076       4.894       4.764       4.592       4.309       3.916       3.490       3.199       3.015    
        2.841       2.640       2.339       2.039       1.795       1.575       1.377      0.9871      0.4511       0.000    
  44    10.00       9.908       9.846       9.795       9.730       9.669       9.583       9.426       9.227       9.010    
        8.815       8.567       8.246       7.968       7.741       7.474       7.203       6.951       6.744       6.607    
        6.510       6.427       6.353       6.276       6.175       6.047       5.883       5.720       5.601       5.476    
        5.337       5.160       4.951       4.753       4.543       4.226       3.813       3.463       3.237       3.059    
        2.884       2.645       2.354       2.094       1.834       1.597       1.354      0.8912      0.4099       0.000    
  45    10.00       9.919       9.861       9.795       9.732       9.679       9.542       9.359       9.159       8.972    
        8.812       8.486       8.152       7.949       7.709       7.414       7.121       6.887       6.718       6.607    
        6.531       6.452       6.370       6.278       6.166       6.042       5.903       5.775       5.671       5.541    
        5.379       5.196       4.981       4.730       4.480       4.138       3.750       3.474       3.303       3.119    
        2.885       2.611       2.362       2.125       1.895       1.659       1.265      0.7921      0.3987       0.000    
  46    10.00       9.934       9.873       9.796       9.724       9.622       9.474       9.336       9.169       8.969    
        8.706       8.396       8.129       7.872       7.617       7.333       7.061       6.887       6.747       6.638    
        6.562       6.486       6.382       6.267       6.158       6.053       5.942       5.825       5.720       5.605    
        5.460       5.266       5.022       4.725       4.367       4.011       3.724       3.528       3.349       3.157    
        2.881       2.589       2.341       2.154       1.933       1.626       1.178      0.7567      0.3731       0.000    
  47    10.00       9.947       9.888       9.813       9.691       9.557       9.430       9.323       9.169       8.907    
        8.592       8.309       8.077       7.862       7.591       7.282       7.041       6.876       6.764       6.673    
        6.591       6.502       6.394       6.272       6.165       6.081       5.989       5.873       5.752       5.640    
        5.513       5.351       5.028       4.611       4.261       4.005       3.764       3.595       3.437       3.172    
        2.835       2.526       2.301       2.171       1.928       1.552       1.114      0.7302      0.3689       0.000    
  48    10.00       9.952       9.893       9.780       9.656       9.540       9.413       9.303       9.149       8.854    
        8.511       8.273       8.083       7.820       7.505       7.226       7.044       6.878       6.767       6.696    
        6.613       6.506       6.390       6.278       6.190       6.122       6.040       5.912       5.771       5.650    
        5.517       5.323       4.986       4.641       4.328       4.045       3.830       3.657       3.454       3.118    
        2.755       2.517       2.338       2.108       1.788       1.455       1.080      0.7357      0.3895       0.000    
  49    10.00       9.950       9.860       9.752       9.658       9.534       9.410       9.295       9.101       8.788    
        8.481       8.254       8.016       7.751       7.513       7.253       7.001       6.846       6.778       6.712    
        6.633       6.511       6.375       6.278       6.210       6.160       6.066       5.918       5.771       5.661    
        5.517       5.261       4.964       4.719       4.457       4.145       3.867       3.654       3.416       3.055    
        2.763       2.553       2.306       1.975       1.691       1.390       1.062      0.7480      0.3809       0.000    
  50    10.00       9.937       9.838       9.739       9.664       9.548       9.411       9.264       9.055       8.808    
        8.497       8.193       7.945       7.734       7.543       7.251       6.964       6.846       6.787       6.723    
        6.647       6.510       6.364       6.276       6.222       6.176       6.071       5.912       5.771       5.659    
        5.502       5.233       5.005       4.795       4.512       4.201       3.920       3.637       3.293       2.974    
        2.819       2.599       2.238       1.905       1.666       1.379       1.094      0.7307      0.3001       0.000    

 HEAD WILL BE SAVED ON UNIT   51 AT END OF TIME STEP  96, STRESS PERIOD    2

 DRAWDOWN WILL BE SAVED ON UNIT   52 AT END OF TIME STEP  96, STRESS PERIOD    2
1
  VOLUMETRIC BUDGET FOR ENTIRE MODEL AT END OF TIME STEP 96 IN STRESS PERIOD   2
  ------------------------------------------------------------------------------

     CUMULATIVE VOLUMES      L**3       RATES FOR THIS TIME STEP      L**3/T
     ------------------                 ------------------------

           IN:                                      IN:
           ---                                      ---
             STORAGE =       43473.6172               STORAGE =         368.8096
       CONSTANT HEAD =       56594.3242         CONSTANT HEAD =         658.1565
               WELLS =           0.0000                 WELLS =           0.0000

            TOTAL IN =      100067.9375              TOTAL IN =        1026.9661

          OUT:                                     OUT:
          ----                                     ----
             STORAGE =       9.3745E-03               STORAGE =           0.0000
       CONSTANT HEAD =       52067.9102         CONSTANT HEAD =         526.9660
               WELLS =       48000.0000                 WELLS =         500.0000

           TOTAL OUT =      100067.9219             TOTAL OUT =        1026.9661

            IN - OUT =       1.5625E-02              IN - OUT =           0.0000

 PERCENT DISCREPANCY =           0.00     PERCENT DISCREPANCY =           0.00






          TIME SUMMARY AT END OF TIME STEP  96 IN STRESS PERIOD    2
                    SECONDS     MINUTES      HOURS       DAYS        YEARS
                    -----------------------------------------------------------
   TIME STEP LENGTH  86400.      1440.0      24.000      1.0000     2.73785E-03
 STRESS PERIOD TIME 8.29440E+06 1.38240E+05  2304.0      96.000     0.26283    
         TOTAL TIME 8.38080E+06 1.39680E+05  2328.0      97.000     0.26557    
1
 
 SOLVING FOR HEAD 

 OUTPUT CONTROL FOR STRESS PERIOD    2   TIME STEP  97
    SAVE HEAD FOR ALL LAYERS
    SAVE DRAWDOWN FOR ALL LAYERS
    SAVE BUDGET
    PRINT HEAD FOR ALL LAYERS
    PRINT BUDGET
 UBDSV1 SAVING "         STORAGE" ON UNIT  53 AT TIME STEP 97, STRESS PERIOD   2
 UBDSV2 SAVING "   CONSTANT HEAD" ON UNIT  53 AT TIME STEP 97, STRESS PERIOD   2
 UBDSV1 SAVING "FLOW RIGHT FACE " ON UNIT  53 AT TIME STEP 97, STRESS PERIOD   2
 UBDSV1 SAVING "FLOW FRONT FACE " ON UNIT  53 AT TIME STEP 97, STRESS PERIOD   2
1
              HEAD IN LAYER   1 AT END OF TIME STEP  97 IN STRESS PERIOD    2
  ---------------------------------------------------------------------------

            1           2           3           4           5           6           7           8           9          10
           11          12          13          14          15          16          17          18          19          20
           21          22          23          24          25          26          27          28          29          30
           31          32          33          34          35          36          37          38          39          40
           41          42          43          44          45          46          47          48          49          50
 ........................................................................................................................
   1    10.00       9.950       9.881       9.813       9.756       9.687       9.619       9.548       9.452       9.374    
        9.329       9.283       9.232       9.182       9.102       9.014       8.919       8.844       8.811       8.775    
        8.730       8.692       8.654       8.606       8.540       8.426       8.289       8.157       8.007       7.858    
        7.647       7.313       6.920       6.508       6.046       5.621       5.262       4.930       4.479       3.989    
        3.574       3.165       2.602       2.068       1.695       1.321       1.007      0.8050      0.5339       0.000    
   2    10.00       9.949       9.888       9.819       9.759       9.695       9.619       9.526       9.434       9.374    
        9.333       9.292       9.253       9.191       9.098       9.008       8.920       8.847       8.811       8.770    
        8.724       8.696       8.665       8.614       8.538       8.429       8.290       8.153       8.012       7.863    
        7.635       7.290       6.876       6.409       5.944       5.534       5.214       4.888       4.430       3.970    
        3.551       3.061       2.553       2.132       1.762       1.414       1.056      0.7644      0.4082       0.000    
   3    10.00       9.944       9.885       9.823       9.761       9.687       9.593       9.504       9.446       9.392    
        9.344       9.308       9.270       9.211       9.119       9.006       8.913       8.853       8.808       8.766    
        8.728       8.697       8.666       8.602       8.520       8.408       8.277       8.173       8.023       7.847    
        7.551       7.148       6.704       6.250       5.825       5.447       5.163       4.827       4.329       3.882    
        3.534       3.090       2.625       2.222       1.839       1.488       1.066      0.6557      0.2884       0.000    
   4    10.00       9.949       9.889       9.820       9.744       9.659       9.569       9.503       9.454       9.402    
        9.361       9.330       9.288       9.224       9.139       9.015       8.912       8.856       8.808       8.768    
        8.725       8.688       8.648       8.579       8.495       8.387       8.258       8.140       8.022       7.800    
        7.415       6.918       6.441       6.093       5.780       5.418       5.054       4.627       4.206       3.884    
        3.578       3.187       2.724       2.327       1.927       1.503       1.016      0.5820      0.2711       0.000    
   5    10.00       9.945       9.881       9.803       9.725       9.645       9.567       9.511       9.459       9.415    
        9.379       9.347       9.297       9.222       9.123       9.009       8.922       8.860       8.810       8.755    
        8.703       8.665       8.615       8.545       8.466       8.340       8.212       8.111       7.993       7.704    
        7.192       6.640       6.247       5.985       5.705       5.342       4.926       4.506       4.213       3.942    
        3.668       3.268       2.788       2.443       2.037       1.483      0.9242      0.5370      0.2702       0.000    
   6    10.00       9.932       9.856       9.795       9.721       9.639       9.573       9.522       9.469       9.428    
        9.395       9.355       9.290       9.203       9.117       9.023       8.928       8.852       8.787       8.723    
        8.678       8.636       8.590       8.516       8.398       8.278       8.182       8.072       7.871       7.452    
        6.877       6.375       6.076       5.883       5.656       5.257       4.808       4.483       4.269       4.036    
        3.774       3.414       2.941       2.514       2.011       1.418      0.8286      0.4722      0.2638       0.000    
   7    10.00       9.912       9.841       9.781       9.710       9.651       9.588       9.536       9.490       9.447    
        9.403       9.346       9.267       9.182       9.105       9.027       8.921       8.816       8.747       8.695    
        8.651       8.606       8.558       8.456       8.336       8.240       8.134       7.952       7.607       7.069    
        6.529       6.140       5.959       5.812       5.522       5.122       4.832       4.555       4.329       4.170    
        3.908       3.540       3.034       2.482       1.862       1.181      0.6944      0.4793      0.2428       0.000    
   8    10.00       9.907       9.841       9.777       9.713       9.661       9.606       9.556       9.512       9.470    
        9.406       9.322       9.239       9.165       9.092       8.995       8.868       8.770       8.717       8.668    
        8.616       8.578       8.497       8.387       8.279       8.165       7.962       7.672       7.194       6.730    
        6.333       6.034       5.901       5.721       5.390       5.086       4.847       4.646       4.470       4.286    
        4.015       3.562       2.979       2.349       1.644       1.066      0.7346      0.4701      0.2166       0.000    
   9    10.00       9.911       9.837       9.773       9.728       9.683       9.631       9.580       9.531       9.482    
        9.400       9.297       9.211       9.135       9.046       8.938       8.823       8.737       8.683       8.631    
        8.584       8.521       8.408       8.305       8.193       8.030       7.732       7.294       6.823       6.493    
        6.184       5.973       5.824       5.583       5.281       5.051       4.883       4.736       4.587       4.387    
        4.052       3.581       2.963       2.261       1.612       1.103      0.7494      0.4663      0.2313       0.000    
  10    10.00       9.909       9.834       9.782       9.741       9.698       9.651       9.607       9.549       9.471    
        9.371       9.266       9.182       9.099       9.005       8.879       8.764       8.695       8.648       8.596    
        8.548       8.444       8.322       8.208       8.049       7.800       7.351       6.880       6.517       6.271    
        6.092       5.924       5.719       5.472       5.223       5.055       4.936       4.815       4.649       4.416    
        4.057       3.542       2.883       2.256       1.744       1.264      0.8027      0.4954      0.2612       0.000    
  11    10.00       9.897       9.839       9.795       9.754       9.716       9.675       9.615       9.531       9.443    
        9.343       9.240       9.159       9.047       8.919       8.808       8.727       8.663       8.616       8.559    
        8.470       8.334       8.158       7.988       7.706       7.334       6.939       6.633       6.348       6.177    
        6.027       5.801       5.573       5.393       5.232       5.115       4.999       4.843       4.646       4.373    
        4.037       3.583       2.919       2.350       1.897       1.437      0.9260      0.4916      0.1974       0.000    
  12    10.00       9.906       9.848       9.802       9.767       9.728       9.681       9.600       9.500       9.409    
        9.313       9.211       9.102       8.966       8.860       8.765       8.680       8.628       8.565       8.476    
        8.301       8.067       7.820       7.564       7.215       6.933       6.733       6.417       6.188       6.059    
        5.902       5.689       5.516       5.368       5.269       5.163       5.025       4.849       4.614       4.329    
        4.000       3.558       2.951       2.444       2.036       1.541      0.9759      0.4660      0.1550       0.000    
  13    10.00       9.926       9.873       9.823       9.778       9.732       9.663       9.562       9.458       9.368    
        9.267       9.163       9.048       8.907       8.786       8.692       8.632       8.563       8.474       8.259    
        7.937       7.654       7.388       7.070       6.800       6.678       6.429       6.144       6.032       5.929    
        5.763       5.585       5.465       5.371       5.293       5.195       5.038       4.819       4.590       4.298    
        3.972       3.525       2.900       2.427       2.050       1.508      0.9092      0.4217      0.1218       0.000    
  14    10.00       9.946       9.897       9.844       9.790       9.719       9.618       9.511       9.417       9.315    
        9.214       9.119       8.980       8.823       8.712       8.638       8.537       8.429       8.214       7.836    
        7.493       7.244       6.896       6.639       6.522       6.385       6.129       5.968       5.853       5.753    
        5.617       5.516       5.450       5.380       5.301       5.202       5.024       4.785       4.541       4.244    
        3.897       3.357       2.769       2.388       1.925       1.405      0.8952      0.3846      9.9043E-02   0.000    
  15    10.00       9.957       9.908       9.854       9.791       9.682       9.558       9.464       9.371       9.272    
        9.195       9.084       8.900       8.728       8.627       8.491       8.355       8.217       7.855       7.413    
        7.134       6.782       6.469       6.376       6.308       6.127       5.924       5.767       5.687       5.618    
        5.543       5.491       5.444       5.387       5.304       5.183       4.977       4.705       4.449       4.177    
        3.802       3.277       2.771       2.259       1.698       1.232      0.7690      0.3384      0.1016       0.000    
  16    10.00       9.968       9.919       9.855       9.756       9.622       9.514       9.438       9.354       9.253    
        9.149       8.987       8.774       8.610       8.461       8.301       8.209       7.928       7.403       7.001    
        6.724       6.382       6.270       6.217       6.085       5.858       5.695       5.627       5.609       5.566    
        5.515       5.475       5.437       5.375       5.275       5.123       4.874       4.630       4.430       4.141    
        3.714       3.149       2.565       1.995       1.517       1.056      0.6544      0.3208      0.1082       0.000    
  17    10.00       9.967       9.915       9.830       9.707       9.572       9.482       9.412       9.317       9.202    
        9.028       8.822       8.631       8.452       8.268       8.115       7.884       7.414       6.931       6.658    
        6.389       6.185       6.098       5.970       5.764       5.597       5.558       5.557       5.550       5.516    
        5.479       5.450       5.416       5.356       5.206       4.999       4.788       4.619       4.431       4.067    
        3.496       2.919       2.360       1.799       1.298      0.8539      0.5480      0.2865      0.1178       0.000    
  18    10.00       9.960       9.898       9.795       9.640       9.531       9.460       9.364       9.254       9.093    
        8.881       8.699       8.508       8.265       8.025       7.771       7.436       6.964       6.608       6.373    
        6.157       5.989       5.856       5.674       5.536       5.496       5.488       5.490       5.474       5.450    
        5.434       5.416       5.376       5.270       5.114       4.941       4.768       4.619       4.355       3.865    
        3.281       2.665       2.066       1.604       1.204      0.8001      0.4706      0.2370      0.1136       0.000    
  19    10.00       9.950       9.882       9.731       9.576       9.512       9.432       9.313       9.177       9.003    
        8.811       8.639       8.361       7.992       7.707       7.448       7.047       6.624       6.389       6.210    
        5.989       5.785       5.639       5.501       5.436       5.424       5.421       5.405       5.379       5.377    
        5.373       5.359       5.300       5.200       5.072       4.907       4.754       4.537       4.081       3.571    
        3.098       2.461       1.891       1.523       1.125      0.7220      0.4250      0.2414      0.1237       0.000    
  20    10.00       9.938       9.823       9.668       9.555       9.486       9.399       9.271       9.119       8.961    
        8.763       8.501       8.084       7.721       7.470       7.153       6.759       6.531       6.317       6.070    
        5.828       5.646       5.496       5.400       5.352       5.329       5.300       5.294       5.281       5.292    
        5.299       5.287       5.224       5.136       5.006       4.866       4.674       4.276       3.784       3.377    
        2.862       2.273       1.845       1.490       1.088      0.6412      0.3717      0.2514      0.1296       0.000    
  21    10.00       9.897       9.774       9.644       9.533       9.460       9.365       9.214       9.064       8.914    
        8.648       8.247       7.826       7.555       7.277       6.945       6.656       6.441       6.185       5.925    
        5.695       5.518       5.387       5.286       5.219       5.168       5.151       5.159       5.163       5.181    
        5.204       5.180       5.118       5.038       4.910       4.757       4.456       4.039       3.653       3.159    
        2.670       2.205       1.844       1.484      0.9185      0.5203      0.3766      0.2842      0.1363       0.000    
  22    10.00       9.870       9.722       9.605       9.517       9.429       9.295       9.155       9.022       8.814    
        8.473       8.022       7.692       7.448       7.137       6.799       6.524       6.298       6.067       5.822    
        5.594       5.407       5.232       5.076       4.988       4.967       4.984       4.997       5.035       5.058    
        5.082       5.056       5.007       4.924       4.800       4.649       4.344       3.948       3.442       2.964    
        2.610       2.238       1.804       1.200      0.7188      0.5195      0.3951      0.2633      9.7451E-02   0.000    
  23    10.00       9.832       9.687       9.596       9.502       9.370       9.224       9.120       8.951       8.692    
        8.296       7.913       7.675       7.370       6.968       6.634       6.420       6.237       6.021       5.758    
        5.519       5.300       5.050       4.757       4.543       4.585       4.720       4.808       4.887       4.941    
        4.963       4.953       4.911       4.834       4.720       4.552       4.245       3.756       3.249       2.913    
        2.587       2.119       1.492      0.9715      0.7087      0.5306      0.3799      0.2244      8.9340E-02   0.000    
  24    10.00       9.806       9.701       9.591       9.458       9.320       9.209       9.093       8.931       8.590    
        8.220       7.936       7.667       7.261       6.821       6.582       6.402       6.222       5.977       5.730    
        5.517       5.240       4.839       4.285       3.610       3.881       4.287       4.570       4.737       4.823    
        4.868       4.866       4.838       4.754       4.625       4.411       4.022       3.559       3.180       2.831    
        2.431       1.906       1.344      0.9443      0.7114      0.5179      0.3473      0.2435      0.1196       0.000    
  25    10.00       9.828       9.721       9.583       9.444       9.318       9.207       9.101       8.859       8.528    
        8.243       7.956       7.604       7.160       6.834       6.619       6.414       6.198       5.975       5.762    
        5.517       5.251       4.679       3.627       1.760       3.142       3.888       4.331       4.606       4.750    
        4.806       4.811       4.774       4.658       4.479       4.184       3.816       3.452       3.128       2.718    
        2.235       1.733       1.258      0.9381      0.7386      0.5391      0.3664      0.2553      0.1590       0.000    
  26    10.00       9.851       9.748       9.602       9.453       9.339       9.221       9.065       8.827       8.596    
        8.328       7.936       7.506       7.147       6.900       6.689       6.451       6.185       5.969       5.791    
        5.587       5.324       4.828       4.052       3.193       3.544       3.990       4.320       4.573       4.732    
        4.781       4.775       4.708       4.567       4.367       4.087       3.680       3.331       3.025       2.524    
        1.975       1.532       1.248       1.025      0.7973      0.5826      0.3999      0.2777      0.1623       0.000    
  27    10.00       9.882       9.754       9.624       9.496       9.361       9.230       9.072       8.876       8.665    
        8.328       7.888       7.511       7.212       7.003       6.761       6.450       6.173       6.003       5.857    
        5.696       5.452       5.074       4.613       4.143       4.104       4.270       4.478       4.665       4.762    
        4.779       4.758       4.677       4.521       4.288       3.906       3.520       3.228       2.758       2.225    
        1.794       1.507       1.292       1.097      0.8723      0.6365      0.4349      0.3059      0.1930       0.000    
  28    10.00       9.891       9.786       9.668       9.543       9.400       9.255       9.104       8.933       8.687    
        8.295       7.913       7.583       7.289       7.067       6.830       6.576       6.306       6.064       5.911    
        5.782       5.607       5.362       5.023       4.731       4.556       4.584       4.715       4.780       4.809    
        4.798       4.756       4.655       4.452       4.141       3.741       3.400       2.986       2.489       2.106    
        1.795       1.550       1.339       1.136      0.9173      0.6951      0.4938      0.3487      0.1993       0.000    
  29    10.00       9.899       9.797       9.704       9.582       9.454       9.313       9.157       8.969       8.643    
        8.279       7.955       7.642       7.394       7.141       6.889       6.657       6.440       6.206       6.002    
        5.863       5.728       5.564       5.359       5.080       4.940       4.917       4.920       4.923       4.890    
        4.835       4.748       4.624       4.363       3.972       3.609       3.255       2.816       2.414       2.129    
        1.874       1.606       1.366       1.171      0.9739      0.7361      0.5224      0.3648      0.2024       0.000    
  30    10.00       9.913       9.828       9.748       9.639       9.512       9.385       9.208       8.958       8.662    
        8.293       7.944       7.689       7.441       7.203       6.974       6.786       6.583       6.353       6.137    
        5.964       5.849       5.708       5.568       5.414       5.288       5.244       5.146       5.086       4.993    
        4.873       4.721       4.535       4.255       3.936       3.587       3.205       2.787       2.477       2.215    
        1.911       1.641       1.432       1.209      0.9740      0.7629      0.5576      0.3880      0.2180       0.000    
  31    10.00       9.931       9.862       9.786       9.705       9.603       9.460       9.241       8.958       8.645    
        8.293       7.980       7.747       7.505       7.284       7.074       6.885       6.726       6.496       6.277    
        6.118       5.994       5.884       5.777       5.700       5.585       5.460       5.352       5.222       5.077    
        4.887       4.679       4.480       4.241       3.931       3.558       3.165       2.815       2.591       2.342    
        2.005       1.707       1.467       1.241       1.022      0.8042      0.5919      0.4088      0.2118       0.000    
  32    10.00       9.941       9.892       9.826       9.749       9.653       9.502       9.254       8.997       8.702    
        8.338       8.048       7.828       7.580       7.347       7.176       7.010       6.821       6.637       6.421    
        6.257       6.125       6.029       5.943       5.854       5.759       5.611       5.480       5.327       5.130    
        4.901       4.680       4.460       4.224       3.918       3.578       3.267       2.965       2.708       2.425    
        2.113       1.816       1.563       1.301       1.061      0.8766      0.6543      0.4022      0.1798       0.000    
  33    10.00       9.950       9.912       9.856       9.779       9.678       9.484       9.241       9.033       8.770    
        8.438       8.162       7.904       7.630       7.425       7.279       7.134       6.941       6.736       6.554    
        6.372       6.240       6.125       6.027       5.945       5.851       5.712       5.543       5.385       5.193    
        4.959       4.746       4.510       4.209       3.918       3.612       3.358       3.119       2.832       2.518    
        2.247       1.964       1.684       1.413       1.159      0.9521      0.7025      0.4058      0.1765       0.000    
  34    10.00       9.959       9.930       9.883       9.784       9.638       9.461       9.292       9.078       8.819    
        8.538       8.240       7.955       7.688       7.518       7.396       7.241       7.057       6.829       6.656    
        6.496       6.334       6.210       6.109       6.028       5.919       5.764       5.602       5.427       5.209    
        5.005       4.820       4.594       4.298       3.999       3.710       3.468       3.235       2.934       2.645    
        2.400       2.128       1.821       1.550       1.292       1.053      0.7540      0.4580      0.2401       0.000    
  35    10.00       9.966       9.931       9.866       9.746       9.604       9.478       9.333       9.162       8.884    
        8.579       8.286       8.002       7.779       7.623       7.495       7.332       7.140       6.923       6.718    
        6.573       6.424       6.298       6.201       6.112       6.000       5.826       5.632       5.430       5.206    
        5.047       4.865       4.628       4.411       4.155       3.846       3.573       3.373       3.082       2.769    
        2.531       2.251       1.943       1.676       1.406       1.144      0.8658      0.5739      0.2839       0.000    
  36    10.00       9.959       9.904       9.833       9.723       9.592       9.487       9.366       9.183       8.920    
        8.593       8.288       8.085       7.909       7.755       7.593       7.403       7.213       6.990       6.742    
        6.583       6.471       6.357       6.276       6.184       6.047       5.859       5.645       5.404       5.190    
        5.048       4.900       4.688       4.473       4.257       3.978       3.701       3.481       3.220       2.876    
        2.614       2.302       1.994       1.789       1.527       1.235      0.9557      0.6505      0.3183       0.000    
  37    10.00       9.939       9.881       9.811       9.704       9.591       9.473       9.359       9.194       8.893    
        8.558       8.322       8.199       8.031       7.842       7.684       7.461       7.230       6.964       6.719    
        6.598       6.505       6.396       6.311       6.207       6.047       5.857       5.594       5.367       5.215    
        5.080       4.914       4.703       4.531       4.308       4.044       3.824       3.611       3.317       2.940    
        2.595       2.301       2.086       1.873       1.610       1.333       1.053      0.7176      0.3941       0.000    
  38    10.00       9.931       9.858       9.786       9.693       9.587       9.465       9.342       9.157       8.878    
        8.626       8.437       8.278       8.130       7.931       7.687       7.444       7.189       6.898       6.722    
        6.623       6.508       6.406       6.331       6.220       6.033       5.762       5.511       5.381       5.259    
        5.115       4.937       4.743       4.570       4.351       4.107       3.925       3.709       3.333       2.917    
        2.617       2.370       2.157       1.936       1.704       1.422       1.143      0.8300      0.4103       0.000    
  39    10.00       9.913       9.842       9.778       9.690       9.572       9.445       9.320       9.148       8.920    
        8.723       8.578       8.402       8.204       7.936       7.641       7.370       7.080       6.868       6.746    
        6.611       6.481       6.402       6.332       6.229       5.988       5.705       5.538       5.415       5.288    
        5.128       4.957       4.768       4.593       4.426       4.223       3.985       3.723       3.351       2.963    
        2.645       2.390       2.222       2.037       1.775       1.497       1.214      0.8639      0.4049       0.000    
  40    10.00       9.905       9.838       9.773       9.684       9.564       9.441       9.319       9.166       8.977    
        8.815       8.690       8.486       8.193       7.866       7.573       7.287       7.034       6.873       6.733    
        6.581       6.464       6.392       6.312       6.175       5.964       5.762       5.588       5.447       5.317    
        5.159       4.973       4.793       4.645       4.496       4.291       4.015       3.741       3.363       2.945    
        2.648       2.446       2.260       2.102       1.827       1.521       1.263      0.8662      0.4033       0.000    
  41    10.00       9.914       9.837       9.761       9.667       9.573       9.470       9.357       9.206       9.035    
        8.882       8.737       8.488       8.149       7.813       7.537       7.254       7.009       6.854       6.706    
        6.554       6.449       6.374       6.278       6.135       5.971       5.830       5.660       5.483       5.330    
        5.178       5.007       4.833       4.703       4.545       4.340       4.064       3.684       3.249       2.928    
        2.711       2.515       2.323       2.103       1.817       1.524       1.303      0.9227      0.4184       0.000    
  42    10.00       9.915       9.829       9.762       9.693       9.606       9.498       9.370       9.243       9.113    
        8.925       8.686       8.400       8.079       7.768       7.515       7.240       6.997       6.833       6.666    
        6.524       6.431       6.350       6.262       6.127       6.009       5.888       5.698       5.500       5.360    
        5.233       5.046       4.858       4.732       4.585       4.366       4.027       3.578       3.180       2.940    
        2.777       2.602       2.357       2.064       1.789       1.560       1.331      0.9730      0.4801       0.000    
  43    10.00       9.908       9.836       9.779       9.724       9.642       9.536       9.416       9.277       9.085    
        8.851       8.608       8.340       8.006       7.725       7.491       7.244       7.000       6.793       6.638    
        6.507       6.414       6.343       6.269       6.152       6.028       5.906       5.710       5.536       5.432    
        5.276       5.074       4.892       4.762       4.590       4.307       3.914       3.489       3.198       3.014    
        2.840       2.639       2.338       2.038       1.795       1.574       1.376      0.9867      0.4510       0.000    
  44    10.00       9.908       9.846       9.795       9.730       9.669       9.582       9.425       9.226       9.008    
        8.813       8.565       8.244       7.966       7.738       7.472       7.201       6.948       6.741       6.605    
        6.507       6.425       6.350       6.273       6.172       6.045       5.881       5.717       5.599       5.474    
        5.334       5.157       4.949       4.751       4.541       4.224       3.811       3.461       3.236       3.058    
        2.882       2.644       2.353       2.093       1.833       1.597       1.354      0.8909      0.4097       0.000    
  45    10.00       9.918       9.860       9.794       9.732       9.679       9.542       9.358       9.158       8.971    
        8.811       8.484       8.150       7.947       7.706       7.412       7.119       6.885       6.716       6.604    
        6.528       6.449       6.367       6.275       6.164       6.039       5.900       5.773       5.668       5.539    
        5.377       5.194       4.979       4.728       4.478       4.136       3.749       3.472       3.301       3.117    
        2.884       2.610       2.361       2.124       1.894       1.658       1.265      0.7918      0.3985       0.000    
  46    10.00       9.934       9.873       9.796       9.724       9.622       9.474       9.336       9.168       8.968    
        8.704       8.395       8.127       7.870       7.615       7.331       7.059       6.884       6.744       6.636    
        6.559       6.483       6.379       6.264       6.156       6.050       5.940       5.822       5.717       5.603    
        5.457       5.264       5.020       4.723       4.365       4.009       3.722       3.527       3.348       3.156    
        2.880       2.588       2.340       2.153       1.933       1.625       1.178      0.7565      0.3730       0.000    
  47    10.00       9.947       9.888       9.812       9.691       9.556       9.430       9.322       9.169       8.906    
        8.591       8.307       8.075       7.860       7.589       7.280       7.039       6.873       6.761       6.671    
        6.588       6.499       6.391       6.269       6.163       6.079       5.987       5.871       5.750       5.637    
        5.511       5.349       5.026       4.610       4.260       4.003       3.762       3.594       3.435       3.171    
        2.834       2.525       2.300       2.171       1.927       1.551       1.114      0.7300      0.3688       0.000    
  48    10.00       9.952       9.893       9.780       9.656       9.539       9.412       9.303       9.148       8.853    
        8.509       8.271       8.081       7.818       7.503       7.223       7.042       6.876       6.764       6.694    
        6.610       6.504       6.387       6.275       6.187       6.120       6.037       5.909       5.769       5.648    
        5.515       5.321       4.984       4.639       4.326       4.043       3.828       3.655       3.453       3.117    
        2.754       2.516       2.337       2.108       1.788       1.454       1.079      0.7354      0.3894       0.000    
  49    10.00       9.950       9.860       9.752       9.658       9.533       9.409       9.294       9.100       8.787    
        8.480       8.253       8.015       7.749       7.511       7.251       6.999       6.844       6.776       6.710    
        6.631       6.508       6.373       6.275       6.208       6.158       6.063       5.916       5.768       5.659    
        5.515       5.259       4.962       4.717       4.456       4.143       3.866       3.652       3.414       3.054    
        2.762       2.552       2.306       1.974       1.690       1.389       1.062      0.7477      0.3808       0.000    
  50    10.00       9.937       9.838       9.739       9.664       9.548       9.410       9.264       9.054       8.807    
        8.496       8.191       7.944       7.732       7.541       7.249       6.961       6.844       6.784       6.721    
        6.645       6.507       6.362       6.274       6.220       6.174       6.069       5.910       5.769       5.657    
        5.500       5.231       5.003       4.793       4.510       4.200       3.919       3.635       3.292       2.973    
        2.818       2.598       2.238       1.904       1.666       1.379       1.094      0.7304      0.3000       0.000    

 HEAD WILL BE SAVED ON UNIT   51 AT END OF TIME STEP  97, STRESS PERIOD    2

 DRAWDOWN WILL BE SAVED ON UNIT   52 AT END OF TIME STEP  97, STRESS PERIOD    2
1
  VOLUMETRIC BUDGET FOR ENTIRE MODEL AT END OF TIME STEP 97 IN STRESS PERIOD   2
  ------------------------------------------------------------------------------

     CUMULATIVE VOLUMES      L**3       RATES FOR THIS TIME STEP      L**3/T
     ------------------                 ------------------------

           IN:                                      IN:
           ---                                      ---
             STORAGE =       43840.4766               STORAGE =         366.8601
       CONSTANT HEAD =       57254.0625         CONSTANT HEAD =         659.7366
               WELLS =           0.0000                 WELLS =           0.0000

            TOTAL IN =      101094.5391              TOTAL IN =        1026.5968

          OUT:                                     OUT:
          ----                                     ----
             STORAGE =       9.3745E-03               STORAGE =           0.0000
       CONSTANT HEAD =       52594.5078         CONSTANT HEAD =         526.5967
               WELLS =       48500.0000                 WELLS =         500.0000

           TOTAL OUT =      101094.5156             TOTAL OUT =        1026.5967

            IN - OUT =       2.3438E-02              IN - OUT =       1.2207E-04

 PERCENT DISCREPANCY =           0.00     PERCENT DISCREPANCY =           0.00






          TIME SUMMARY AT END OF TIME STEP  97 IN STRESS PERIOD    2
                    SECONDS     MINUTES      HOURS       DAYS        YEARS
                    -----------------------------------------------------------
   TIME STEP LENGTH  86400.      1440.0      24.000      1.0000     2.73785E-03
 STRESS PERIOD TIME 8.38080E+06 1.39680E+05  2328.0      97.000     0.26557    
         TOTAL TIME 8.46720E+06 1.41120E+05  2352.0      98.000     0.26831    
1
 
 SOLVING FOR HEAD 

 OUTPUT CONTROL FOR STRESS PERIOD    2   TIME STEP  98
    SAVE HEAD FOR ALL LAYERS
    SAVE DRAWDOWN FOR ALL LAYERS
    SAVE BUDGET
    PRINT HEAD FOR ALL LAYERS
    PRINT BUDGET
 UBDSV1 SAVING "         STORAGE" ON UNIT  53 AT TIME STEP 98, STRESS PERIOD   2
 UBDSV2 SAVING "   CONSTANT HEAD" ON UNIT  53 AT TIME STEP 98, STRESS PERIOD   2
 UBDSV1 SAVING "FLOW RIGHT FACE " ON UNIT  53 AT TIME STEP 98, STRESS PERIOD   2
 UBDSV1 SAVING "FLOW FRONT FACE " ON UNIT  53 AT TIME STEP 98, STRESS PERIOD   2
1
              HEAD IN LAYER   1 AT END OF TIME STEP  98 IN STRESS PERIOD    2
  ---------------------------------------------------------------------------

            1           2           3           4           5           6           7           8           9          10
           11          12          13          14          15          16          17          18          19          20
           21          22          23          24          25          26          27          28          29          30
           31          32          33          34          35          36          37          38          39          40
           41          42          43          44          45          46          47          48          49          50
 ........................................................................................................................
   1    10.00       9.950       9.881       9.812       9.755       9.686       9.618       9.546       9.451       9.373    
        9.327       9.281       9.230       9.180       9.100       9.012       8.916       8.842       8.808       8.772    
        8.727       8.689       8.650       8.603       8.537       8.422       8.286       8.154       8.003       7.854    
        7.643       7.309       6.916       6.503       6.042       5.617       5.258       4.926       4.475       3.985    
        3.570       3.162       2.599       2.066       1.693       1.320       1.006      0.8042      0.5334       0.000    
   2    10.00       9.949       9.887       9.819       9.758       9.694       9.618       9.524       9.432       9.372    
        9.331       9.290       9.251       9.189       9.096       9.005       8.918       8.845       8.809       8.767    
        8.721       8.692       8.662       8.611       8.534       8.425       8.287       8.149       8.008       7.859    
        7.631       7.286       6.871       6.404       5.939       5.530       5.209       4.884       4.426       3.967    
        3.548       3.058       2.551       2.130       1.760       1.413       1.055      0.7637      0.4078       0.000    
   3    10.00       9.944       9.885       9.822       9.761       9.686       9.592       9.503       9.445       9.390    
        9.342       9.306       9.268       9.209       9.116       9.003       8.910       8.850       8.805       8.763    
        8.725       8.694       8.663       8.598       8.516       8.405       8.273       8.169       8.019       7.844    
        7.547       7.144       6.700       6.245       5.820       5.443       5.158       4.822       4.325       3.878    
        3.531       3.087       2.623       2.220       1.837       1.487       1.065      0.6550      0.2881       0.000    
   4    10.00       9.949       9.888       9.820       9.744       9.658       9.568       9.502       9.452       9.400    
        9.359       9.329       9.286       9.222       9.137       9.013       8.909       8.853       8.805       8.765    
        8.722       8.684       8.645       8.576       8.491       8.383       8.254       8.136       8.018       7.796    
        7.410       6.913       6.436       6.088       5.775       5.414       5.050       4.622       4.202       3.880    
        3.574       3.184       2.721       2.325       1.925       1.501       1.015      0.5814      0.2708       0.000    
   5    10.00       9.945       9.881       9.803       9.724       9.644       9.566       9.510       9.458       9.413    
        9.377       9.345       9.295       9.220       9.120       9.007       8.919       8.857       8.807       8.752    
        8.700       8.662       8.612       8.542       8.463       8.337       8.208       8.107       7.989       7.700    
        7.188       6.635       6.242       5.980       5.700       5.337       4.921       4.501       4.209       3.938    
        3.665       3.265       2.785       2.441       2.035       1.481      0.9233      0.5364      0.2699       0.000    
   6    10.00       9.932       9.856       9.794       9.720       9.638       9.571       9.521       9.467       9.427    
        9.393       9.353       9.288       9.201       9.115       9.021       8.926       8.849       8.784       8.719    
        8.675       8.633       8.587       8.512       8.395       8.274       8.178       8.068       7.867       7.447    
        6.872       6.370       6.070       5.877       5.651       5.251       4.803       4.478       4.265       4.031    
        3.770       3.411       2.938       2.511       2.009       1.416      0.8277      0.4717      0.2636       0.000    
   7    10.00       9.912       9.841       9.781       9.710       9.650       9.587       9.534       9.489       9.446    
        9.402       9.344       9.265       9.180       9.103       9.025       8.918       8.813       8.744       8.692    
        8.648       8.602       8.554       8.453       8.332       8.236       8.130       7.948       7.602       7.064    
        6.523       6.134       5.953       5.806       5.516       5.117       4.826       4.550       4.324       4.166    
        3.904       3.536       3.031       2.479       1.860       1.180      0.6936      0.4788      0.2425       0.000    
   8    10.00       9.906       9.840       9.776       9.712       9.660       9.605       9.554       9.511       9.468    
        9.404       9.320       9.237       9.162       9.089       8.992       8.865       8.767       8.714       8.665    
        8.612       8.574       8.494       8.383       8.275       8.161       7.958       7.667       7.189       6.724    
        6.327       6.028       5.895       5.715       5.384       5.080       4.841       4.640       4.465       4.281    
        4.011       3.558       2.976       2.347       1.642       1.065      0.7339      0.4696      0.2164       0.000    
   9    10.00       9.910       9.836       9.773       9.727       9.682       9.630       9.579       9.529       9.480    
        9.398       9.295       9.208       9.132       9.044       8.935       8.820       8.734       8.679       8.627    
        8.580       8.518       8.404       8.301       8.188       8.025       7.728       7.289       6.817       6.487    
        6.178       5.967       5.818       5.577       5.275       5.045       4.878       4.730       4.582       4.382    
        4.048       3.577       2.960       2.258       1.610       1.102      0.7486      0.4659      0.2310       0.000    
  10    10.00       9.909       9.833       9.781       9.740       9.697       9.650       9.606       9.547       9.469    
        9.369       9.264       9.180       9.096       9.003       8.876       8.761       8.692       8.645       8.593    
        8.545       8.440       8.318       8.204       8.044       7.795       7.345       6.873       6.510       6.264    
        6.085       5.917       5.712       5.466       5.216       5.049       4.930       4.809       4.643       4.411    
        4.052       3.538       2.880       2.254       1.742       1.262      0.8019      0.4949      0.2609       0.000    
  11    10.00       9.897       9.838       9.794       9.753       9.715       9.674       9.614       9.530       9.441    
        9.341       9.238       9.157       9.045       8.916       8.805       8.724       8.659       8.613       8.555    
        8.466       8.330       8.154       7.983       7.701       7.328       6.932       6.626       6.341       6.170    
        6.020       5.794       5.566       5.386       5.225       5.109       4.993       4.837       4.640       4.367    
        4.032       3.579       2.915       2.347       1.895       1.435      0.9250      0.4910      0.1972       0.000    
  12    10.00       9.905       9.848       9.801       9.767       9.727       9.680       9.599       9.498       9.407    
        9.311       9.209       9.099       8.963       8.857       8.762       8.676       8.624       8.562       8.472    
        8.296       8.062       7.814       7.558       7.209       6.926       6.726       6.410       6.180       6.052    
        5.894       5.682       5.508       5.361       5.262       5.156       5.019       4.842       4.608       4.324    
        3.995       3.553       2.947       2.442       2.034       1.539      0.9749      0.4656      0.1548       0.000    
  13    10.00       9.926       9.872       9.822       9.778       9.731       9.662       9.561       9.456       9.366    
        9.264       9.161       9.045       8.904       8.783       8.688       8.628       8.559       8.470       8.255    
        7.931       7.648       7.382       7.063       6.793       6.671       6.421       6.136       6.024       5.921    
        5.755       5.577       5.457       5.364       5.286       5.188       5.031       4.812       4.583       4.292    
        3.967       3.520       2.896       2.424       2.047       1.506      0.9083      0.4212      0.1217       0.000    
  14    10.00       9.946       9.897       9.844       9.790       9.718       9.616       9.509       9.415       9.313    
        9.211       9.116       8.977       8.820       8.709       8.634       8.533       8.425       8.209       7.830    
        7.487       7.238       6.889       6.632       6.514       6.377       6.121       5.960       5.845       5.745    
        5.608       5.508       5.442       5.372       5.293       5.195       5.017       4.779       4.534       4.238    
        3.892       3.352       2.765       2.385       1.923       1.403      0.8942      0.3842      9.8936E-02   0.000    
  15    10.00       9.957       9.907       9.853       9.790       9.681       9.556       9.462       9.369       9.270    
        9.193       9.081       8.897       8.724       8.623       8.487       8.350       8.212       7.849       7.407    
        7.127       6.774       6.461       6.368       6.300       6.119       5.915       5.758       5.679       5.609    
        5.534       5.483       5.436       5.379       5.296       5.176       4.970       4.698       4.443       4.171    
        3.796       3.273       2.767       2.256       1.696       1.231      0.7681      0.3380      0.1015       0.000    
  16    10.00       9.968       9.919       9.854       9.755       9.621       9.513       9.436       9.352       9.250    
        9.146       8.984       8.771       8.606       8.457       8.297       8.204       7.922       7.397       6.994    
        6.716       6.374       6.262       6.208       6.077       5.849       5.686       5.618       5.600       5.557    
        5.506       5.466       5.429       5.367       5.266       5.115       4.867       4.622       4.423       4.135    
        3.709       3.144       2.562       1.992       1.515       1.054      0.6537      0.3205      0.1081       0.000    
  17    10.00       9.967       9.915       9.829       9.706       9.570       9.480       9.410       9.315       9.200    
        9.025       8.818       8.627       8.447       8.263       8.110       7.879       7.407       6.923       6.649    
        6.380       6.176       6.089       5.961       5.755       5.588       5.549       5.548       5.541       5.506    
        5.470       5.441       5.407       5.347       5.198       4.991       4.780       4.612       4.425       4.061    
        3.491       2.915       2.357       1.797       1.296      0.8529      0.5473      0.2862      0.1177       0.000    
  18    10.00       9.959       9.898       9.794       9.638       9.529       9.458       9.362       9.252       9.090    
        8.878       8.695       8.504       8.260       8.019       7.764       7.429       6.956       6.600       6.364    
        6.148       5.980       5.847       5.664       5.527       5.486       5.479       5.480       5.464       5.441    
        5.425       5.407       5.367       5.261       5.105       4.932       4.760       4.611       4.348       3.859    
        3.276       2.661       2.063       1.602       1.202      0.7991      0.4700      0.2367      0.1135       0.000    
  19    10.00       9.950       9.881       9.730       9.574       9.510       9.430       9.310       9.174       9.000    
        8.807       8.635       8.356       7.986       7.701       7.441       7.040       6.616       6.380       6.201    
        5.980       5.775       5.630       5.492       5.426       5.414       5.412       5.395       5.370       5.368    
        5.364       5.350       5.291       5.191       5.063       4.899       4.746       4.530       4.075       3.566    
        3.094       2.457       1.888       1.521       1.124      0.7211      0.4245      0.2411      0.1235       0.000    
  20    10.00       9.938       9.822       9.667       9.554       9.484       9.397       9.268       9.116       8.958    
        8.759       8.496       8.078       7.714       7.463       7.145       6.750       6.522       6.309       6.061    
        5.819       5.637       5.486       5.390       5.342       5.319       5.290       5.285       5.272       5.283    
        5.289       5.277       5.215       5.127       4.997       4.857       4.665       4.269       3.778       3.372    
        2.858       2.269       1.843       1.488       1.087      0.6404      0.3712      0.2511      0.1294       0.000    
  21    10.00       9.897       9.773       9.642       9.531       9.458       9.363       9.212       9.060       8.910    
        8.643       8.241       7.820       7.548       7.269       6.937       6.648       6.432       6.176       5.916    
        5.686       5.508       5.377       5.276       5.209       5.158       5.141       5.150       5.153       5.171    
        5.194       5.170       5.109       5.028       4.901       4.748       4.448       4.032       3.646       3.154    
        2.666       2.202       1.841       1.482      0.9173      0.5197      0.3761      0.2839      0.1362       0.000    
  22    10.00       9.870       9.721       9.604       9.515       9.427       9.292       9.152       9.018       8.810    
        8.468       8.016       7.685       7.440       7.129       6.791       6.516       6.289       6.057       5.812    
        5.585       5.397       5.222       5.066       4.978       4.957       4.974       4.987       5.024       5.048    
        5.072       5.046       4.997       4.914       4.791       4.640       4.336       3.941       3.436       2.960    
        2.606       2.235       1.802       1.199      0.7180      0.5189      0.3947      0.2630      9.7342E-02   0.000    
  23    10.00       9.831       9.686       9.594       9.500       9.367       9.221       9.117       8.948       8.688    
        8.290       7.906       7.668       7.363       6.960       6.626       6.411       6.228       6.012       5.748    
        5.509       5.290       5.040       4.747       4.532       4.574       4.710       4.797       4.877       4.931    
        4.953       4.943       4.901       4.824       4.710       4.542       4.237       3.749       3.244       2.908    
        2.584       2.116       1.490      0.9704      0.7079      0.5300      0.3795      0.2241      8.9246E-02   0.000    
  24    10.00       9.805       9.700       9.590       9.456       9.318       9.206       9.090       8.928       8.585    
        8.214       7.930       7.660       7.253       6.813       6.574       6.393       6.213       5.968       5.720    
        5.507       5.230       4.829       4.275       3.600       3.870       4.277       4.559       4.727       4.812    
        4.857       4.855       4.827       4.744       4.615       4.402       4.014       3.553       3.175       2.826    
        2.427       1.903       1.342      0.9432      0.7106      0.5174      0.3470      0.2433      0.1195       0.000    
  25    10.00       9.828       9.720       9.581       9.442       9.315       9.204       9.098       8.855       8.524    
        8.237       7.950       7.597       7.152       6.826       6.611       6.405       6.189       5.965       5.752    
        5.507       5.241       4.669       3.617       1.749       3.131       3.877       4.320       4.595       4.740    
        4.795       4.800       4.764       4.648       4.469       4.176       3.808       3.445       3.122       2.714    
        2.232       1.731       1.256      0.9371      0.7379      0.5386      0.3661      0.2551      0.1588       0.000    
  26    10.00       9.851       9.747       9.601       9.451       9.337       9.219       9.062       8.823       8.592    
        8.323       7.929       7.499       7.139       6.892       6.681       6.442       6.176       5.960       5.781    
        5.578       5.314       4.818       4.041       3.182       3.534       3.979       4.309       4.562       4.721    
        4.770       4.765       4.697       4.557       4.358       4.079       3.673       3.325       3.020       2.521    
        1.972       1.530       1.246       1.024      0.7965      0.5820      0.3995      0.2774      0.1621       0.000    
  27    10.00       9.882       9.753       9.623       9.494       9.358       9.227       9.069       8.872       8.660    
        8.322       7.882       7.504       7.205       6.995       6.752       6.442       6.164       5.994       5.847    
        5.687       5.442       5.064       4.603       4.133       4.094       4.259       4.467       4.654       4.751    
        4.769       4.748       4.667       4.512       4.279       3.899       3.514       3.223       2.753       2.222    
        1.792       1.505       1.291       1.096      0.8714      0.6359      0.4345      0.3056      0.1928       0.000    
  28    10.00       9.890       9.785       9.667       9.541       9.398       9.253       9.101       8.929       8.683    
        8.290       7.907       7.577       7.282       7.059       6.822       6.567       6.297       6.055       5.901    
        5.773       5.598       5.352       5.013       4.721       4.546       4.573       4.704       4.769       4.799    
        4.787       4.746       4.645       4.443       4.133       3.735       3.395       2.981       2.486       2.104    
        1.793       1.548       1.338       1.135      0.9165      0.6945      0.4934      0.3484      0.1992       0.000    
  29    10.00       9.898       9.796       9.703       9.581       9.452       9.310       9.154       8.966       8.639    
        8.273       7.949       7.636       7.387       7.134       6.881       6.649       6.431       6.197       5.993    
        5.854       5.718       5.554       5.350       5.070       4.929       4.906       4.910       4.913       4.879    
        4.825       4.739       4.615       4.355       3.965       3.603       3.250       2.812       2.411       2.126    
        1.872       1.604       1.365       1.170      0.9730      0.7354      0.5220      0.3645      0.2022       0.000    
  30    10.00       9.912       9.828       9.747       9.638       9.511       9.383       9.205       8.955       8.658    
        8.288       7.938       7.682       7.434       7.196       6.966       6.778       6.574       6.344       6.128    
        5.955       5.840       5.699       5.559       5.404       5.278       5.234       5.135       5.076       4.983    
        4.863       4.712       4.527       4.248       3.930       3.582       3.200       2.784       2.475       2.212    
        1.909       1.639       1.431       1.208      0.9732      0.7623      0.5572      0.3876      0.2179       0.000    
  31    10.00       9.931       9.862       9.785       9.704       9.601       9.458       9.239       8.954       8.641    
        8.288       7.974       7.741       7.499       7.277       7.066       6.877       6.718       6.487       6.268    
        6.109       5.985       5.875       5.767       5.690       5.575       5.450       5.343       5.212       5.068    
        4.878       4.672       4.473       4.235       3.926       3.554       3.161       2.812       2.589       2.340    
        2.003       1.705       1.466       1.240       1.021      0.8036      0.5914      0.4085      0.2116       0.000    
  32    10.00       9.940       9.891       9.825       9.748       9.652       9.501       9.252       8.994       8.698    
        8.334       8.043       7.822       7.574       7.340       7.169       7.003       6.813       6.629       6.412    
        6.249       6.117       6.020       5.934       5.845       5.750       5.602       5.471       5.318       5.121    
        4.894       4.673       4.453       4.219       3.913       3.574       3.264       2.962       2.706       2.422    
        2.112       1.815       1.562       1.300       1.061      0.8759      0.6538      0.4019      0.1796       0.000    
  33    10.00       9.950       9.912       9.856       9.778       9.677       9.482       9.238       9.030       8.767    
        8.433       8.157       7.898       7.623       7.419       7.272       7.127       6.933       6.728       6.546    
        6.363       6.232       6.117       6.019       5.937       5.843       5.703       5.534       5.377       5.185    
        4.952       4.740       4.504       4.204       3.914       3.608       3.354       3.116       2.829       2.516    
        2.245       1.962       1.683       1.412       1.159      0.9515      0.7021      0.4056      0.1764       0.000    
  34    10.00       9.959       9.930       9.883       9.784       9.637       9.459       9.290       9.075       8.815    
        8.533       8.235       7.950       7.682       7.512       7.390       7.234       7.050       6.822       6.648    
        6.488       6.326       6.202       6.101       6.020       5.911       5.756       5.594       5.420       5.202    
        4.999       4.814       4.589       4.294       3.995       3.707       3.465       3.232       2.932       2.644    
        2.398       2.126       1.820       1.549       1.291       1.052      0.7537      0.4578      0.2400       0.000    
  35    10.00       9.966       9.931       9.865       9.745       9.603       9.476       9.331       9.160       8.881    
        8.575       8.282       7.997       7.774       7.617       7.488       7.326       7.133       6.916       6.711    
        6.566       6.417       6.291       6.194       6.104       5.993       5.819       5.625       5.424       5.200    
        5.042       4.860       4.624       4.407       4.152       3.843       3.570       3.371       3.080       2.768    
        2.529       2.249       1.942       1.675       1.406       1.144      0.8654      0.5737      0.2838       0.000    
  36    10.00       9.959       9.904       9.833       9.722       9.591       9.486       9.364       9.181       8.917    
        8.590       8.284       8.080       7.904       7.750       7.588       7.397       7.207       6.984       6.736    
        6.576       6.464       6.351       6.270       6.177       6.040       5.853       5.639       5.399       5.186    
        5.043       4.896       4.684       4.470       4.254       3.976       3.698       3.479       3.218       2.874    
        2.612       2.301       1.993       1.788       1.526       1.235      0.9553      0.6503      0.3182       0.000    
  37    10.00       9.938       9.880       9.810       9.703       9.590       9.472       9.357       9.192       8.891    
        8.554       8.319       8.195       8.027       7.837       7.679       7.455       7.224       6.958       6.713    
        6.592       6.499       6.390       6.305       6.201       6.041       5.852       5.589       5.363       5.211    
        5.076       4.910       4.700       4.528       4.305       4.041       3.822       3.609       3.315       2.938    
        2.594       2.300       2.085       1.872       1.610       1.333       1.053      0.7174      0.3940       0.000    
  38    10.00       9.931       9.857       9.785       9.692       9.586       9.464       9.340       9.156       8.875    
        8.623       8.433       8.274       8.125       7.927       7.682       7.439       7.183       6.893       6.717    
        6.618       6.502       6.401       6.326       6.215       6.028       5.758       5.507       5.377       5.255    
        5.112       4.934       4.740       4.567       4.349       4.104       3.923       3.707       3.331       2.915    
        2.616       2.369       2.156       1.935       1.703       1.422       1.143      0.8297      0.4101       0.000    
  39    10.00       9.913       9.842       9.777       9.690       9.571       9.444       9.318       9.146       8.917    
        8.720       8.575       8.399       8.200       7.932       7.637       7.366       7.075       6.863       6.741    
        6.607       6.476       6.398       6.328       6.225       5.984       5.701       5.534       5.411       5.285    
        5.125       4.954       4.766       4.591       4.424       4.221       3.983       3.721       3.350       2.961    
        2.644       2.389       2.221       2.036       1.775       1.496       1.213      0.8636      0.4047       0.000    
  40    10.00       9.905       9.837       9.773       9.684       9.564       9.440       9.317       9.164       8.975    
        8.813       8.687       8.483       8.189       7.863       7.569       7.283       7.030       6.869       6.729    
        6.577       6.460       6.388       6.308       6.171       5.961       5.758       5.585       5.444       5.314    
        5.157       4.971       4.790       4.643       4.494       4.289       4.013       3.739       3.361       2.944    
        2.647       2.445       2.259       2.101       1.826       1.521       1.262      0.8659      0.4032       0.000    
  41    10.00       9.914       9.837       9.761       9.666       9.572       9.469       9.355       9.205       9.034    
        8.880       8.734       8.485       8.146       7.810       7.533       7.251       7.005       6.850       6.702    
        6.550       6.445       6.370       6.275       6.132       5.968       5.828       5.657       5.481       5.327    
        5.175       5.005       4.831       4.701       4.543       4.338       4.062       3.682       3.248       2.926    
        2.710       2.514       2.322       2.103       1.816       1.524       1.302      0.9223      0.4182       0.000    
  42    10.00       9.915       9.828       9.762       9.692       9.606       9.497       9.369       9.242       9.111    
        8.923       8.684       8.398       8.076       7.766       7.512       7.236       6.993       6.829       6.662    
        6.520       6.428       6.347       6.259       6.124       6.006       5.886       5.695       5.497       5.358    
        5.230       5.044       4.856       4.730       4.583       4.364       4.025       3.577       3.179       2.939    
        2.776       2.601       2.356       2.063       1.789       1.560       1.330      0.9727      0.4800       0.000    
  43    10.00       9.908       9.836       9.779       9.724       9.642       9.536       9.415       9.276       9.084    
        8.850       8.606       8.337       8.004       7.722       7.488       7.241       6.997       6.789       6.634    
        6.504       6.411       6.340       6.266       6.150       6.025       5.903       5.707       5.534       5.429    
        5.274       5.072       4.890       4.760       4.588       4.305       3.913       3.487       3.197       3.013    
        2.839       2.638       2.338       2.037       1.794       1.574       1.376      0.9863      0.4508       0.000    
  44    10.00       9.908       9.845       9.794       9.729       9.668       9.582       9.424       9.225       9.007    
        8.812       8.564       8.242       7.963       7.736       7.469       7.198       6.946       6.739       6.602    
        6.504       6.422       6.347       6.270       6.169       6.042       5.878       5.715       5.596       5.471    
        5.332       5.155       4.947       4.748       4.539       4.222       3.810       3.460       3.235       3.057    
        2.881       2.643       2.353       2.093       1.832       1.596       1.353      0.8905      0.4096       0.000    
  45    10.00       9.918       9.860       9.794       9.731       9.678       9.541       9.358       9.157       8.970    
        8.809       8.482       8.148       7.945       7.704       7.410       7.116       6.882       6.713       6.601    
        6.526       6.447       6.364       6.273       6.161       6.036       5.898       5.770       5.666       5.536    
        5.375       5.192       4.977       4.726       4.476       4.134       3.747       3.471       3.300       3.116    
        2.883       2.609       2.361       2.124       1.893       1.658       1.264      0.7915      0.3984       0.000    
  46    10.00       9.934       9.872       9.795       9.724       9.621       9.473       9.335       9.167       8.967    
        8.703       8.393       8.125       7.868       7.613       7.328       7.056       6.882       6.742       6.633    
        6.557       6.480       6.377       6.261       6.153       6.047       5.937       5.820       5.715       5.600    
        5.455       5.262       5.017       4.721       4.363       4.007       3.721       3.525       3.346       3.155    
        2.879       2.588       2.340       2.152       1.932       1.625       1.177      0.7562      0.3728       0.000    
  47    10.00       9.947       9.888       9.812       9.690       9.556       9.429       9.321       9.168       8.905    
        8.590       8.306       8.073       7.858       7.587       7.277       7.036       6.871       6.759       6.668    
        6.586       6.497       6.389       6.267       6.160       6.076       5.984       5.868       5.747       5.635    
        5.508       5.347       5.024       4.608       4.258       4.002       3.761       3.592       3.434       3.170    
        2.833       2.524       2.300       2.170       1.926       1.551       1.114      0.7297      0.3687       0.000    
  48    10.00       9.952       9.892       9.780       9.655       9.539       9.412       9.302       9.148       8.852    
        8.508       8.270       8.079       7.817       7.501       7.221       7.040       6.873       6.762       6.691    
        6.608       6.501       6.385       6.273       6.184       6.117       6.035       5.907       5.766       5.645    
        5.513       5.318       4.982       4.637       4.324       4.041       3.826       3.654       3.452       3.116    
        2.753       2.515       2.337       2.107       1.787       1.454       1.079      0.7352      0.3893       0.000    
  49    10.00       9.950       9.860       9.751       9.657       9.533       9.409       9.293       9.099       8.786    
        8.479       8.251       8.013       7.747       7.509       7.248       6.996       6.841       6.773       6.707    
        6.628       6.506       6.370       6.273       6.205       6.155       6.061       5.913       5.766       5.656    
        5.512       5.257       4.960       4.715       4.454       4.142       3.864       3.651       3.413       3.053    
        2.761       2.552       2.305       1.973       1.690       1.389       1.061      0.7475      0.3807       0.000    
  50    10.00       9.937       9.838       9.739       9.663       9.547       9.410       9.263       9.053       8.806    
        8.494       8.189       7.942       7.730       7.539       7.246       6.959       6.842       6.782       6.718    
        6.642       6.505       6.359       6.271       6.217       6.171       6.066       5.907       5.767       5.655    
        5.498       5.229       5.001       4.791       4.508       4.198       3.917       3.634       3.291       2.972    
        2.817       2.597       2.237       1.903       1.665       1.378       1.094      0.7302      0.2999       0.000    

 HEAD WILL BE SAVED ON UNIT   51 AT END OF TIME STEP  98, STRESS PERIOD    2

 DRAWDOWN WILL BE SAVED ON UNIT   52 AT END OF TIME STEP  98, STRESS PERIOD    2
1
  VOLUMETRIC BUDGET FOR ENTIRE MODEL AT END OF TIME STEP 98 IN STRESS PERIOD   2
  ------------------------------------------------------------------------------

     CUMULATIVE VOLUMES      L**3       RATES FOR THIS TIME STEP      L**3/T
     ------------------                 ------------------------

           IN:                                      IN:
           ---                                      ---
             STORAGE =       44205.3945               STORAGE =         364.9167
       CONSTANT HEAD =       57915.3711         CONSTANT HEAD =         661.3073
               WELLS =           0.0000                 WELLS =           0.0000

            TOTAL IN =      102120.7656              TOTAL IN =        1026.2240

          OUT:                                     OUT:
          ----                                     ----
             STORAGE =       9.3745E-03               STORAGE =           0.0000
       CONSTANT HEAD =       53120.7305         CONSTANT HEAD =         526.2238
               WELLS =       49000.0000                 WELLS =         500.0000

           TOTAL OUT =      102120.7422             TOTAL OUT =        1026.2238

            IN - OUT =       2.3438E-02              IN - OUT =       2.4414E-04

 PERCENT DISCREPANCY =           0.00     PERCENT DISCREPANCY =           0.00






          TIME SUMMARY AT END OF TIME STEP  98 IN STRESS PERIOD    2
                    SECONDS     MINUTES      HOURS       DAYS        YEARS
                    -----------------------------------------------------------
   TIME STEP LENGTH  86400.      1440.0      24.000      1.0000     2.73785E-03
 STRESS PERIOD TIME 8.46720E+06 1.41120E+05  2352.0      98.000     0.26831    
         TOTAL TIME 8.55360E+06 1.42560E+05  2376.0      99.000     0.27105    
1
 
 SOLVING FOR HEAD 

 OUTPUT CONTROL FOR STRESS PERIOD    2   TIME STEP  99
    SAVE HEAD FOR ALL LAYERS
    SAVE DRAWDOWN FOR ALL LAYERS
    SAVE BUDGET
    PRINT HEAD FOR ALL LAYERS
    PRINT BUDGET
 UBDSV1 SAVING "         STORAGE" ON UNIT  53 AT TIME STEP 99, STRESS PERIOD   2
 UBDSV2 SAVING "   CONSTANT HEAD" ON UNIT  53 AT TIME STEP 99, STRESS PERIOD   2
 UBDSV1 SAVING "FLOW RIGHT FACE " ON UNIT  53 AT TIME STEP 99, STRESS PERIOD   2
 UBDSV1 SAVING "FLOW FRONT FACE " ON UNIT  53 AT TIME STEP 99, STRESS PERIOD   2
1
              HEAD IN LAYER   1 AT END OF TIME STEP  99 IN STRESS PERIOD    2
  ---------------------------------------------------------------------------

            1           2           3           4           5           6           7           8           9          10
           11          12          13          14          15          16          17          18          19          20
           21          22          23          24          25          26          27          28          29          30
           31          32          33          34          35          36          37          38          39          40
           41          42          43          44          45          46          47          48          49          50
 ........................................................................................................................
   1    10.00       9.949       9.880       9.812       9.755       9.685       9.617       9.545       9.449       9.371    
        9.325       9.279       9.228       9.178       9.097       9.009       8.913       8.839       8.805       8.769    
        8.724       8.686       8.647       8.599       8.533       8.419       8.282       8.150       7.999       7.850    
        7.639       7.305       6.912       6.499       6.038       5.613       5.254       4.922       4.471       3.982    
        3.567       3.159       2.597       2.064       1.691       1.318       1.005      0.8034      0.5329       0.000    
   2    10.00       9.949       9.887       9.818       9.757       9.693       9.617       9.523       9.431       9.371    
        9.329       9.288       9.249       9.187       9.094       9.003       8.915       8.842       8.806       8.764    
        8.718       8.689       8.658       8.607       8.531       8.422       8.283       8.145       8.004       7.856    
        7.627       7.282       6.867       6.400       5.935       5.526       5.205       4.880       4.423       3.963    
        3.545       3.055       2.548       2.128       1.758       1.411       1.054      0.7629      0.4074       0.000    
   3    10.00       9.944       9.885       9.822       9.760       9.686       9.591       9.502       9.443       9.388    
        9.341       9.304       9.266       9.207       9.114       9.001       8.908       8.847       8.802       8.760    
        8.722       8.691       8.660       8.595       8.513       8.401       8.270       8.165       8.015       7.840    
        7.543       7.140       6.695       6.241       5.816       5.439       5.154       4.818       4.321       3.874    
        3.527       3.084       2.620       2.218       1.835       1.485       1.063      0.6544      0.2878       0.000    
   4    10.00       9.949       9.888       9.819       9.743       9.657       9.567       9.501       9.451       9.399    
        9.357       9.327       9.284       9.220       9.135       9.010       8.907       8.850       8.802       8.762    
        8.719       8.681       8.642       8.572       8.488       8.379       8.250       8.132       8.014       7.792    
        7.406       6.908       6.431       6.083       5.771       5.409       5.045       4.618       4.198       3.876    
        3.570       3.181       2.718       2.323       1.923       1.500       1.014      0.5808      0.2706       0.000    
   5    10.00       9.945       9.881       9.802       9.723       9.643       9.565       9.508       9.456       9.412    
        9.375       9.343       9.293       9.218       9.118       9.004       8.916       8.854       8.804       8.748    
        8.697       8.659       8.609       8.538       8.459       8.333       8.204       8.103       7.985       7.696    
        7.183       6.630       6.237       5.975       5.694       5.332       4.917       4.497       4.204       3.934    
        3.661       3.261       2.782       2.438       2.033       1.480      0.9223      0.5359      0.2696       0.000    
   6    10.00       9.931       9.855       9.794       9.719       9.637       9.570       9.519       9.466       9.425    
        9.391       9.351       9.286       9.199       9.113       9.018       8.923       8.846       8.781       8.716    
        8.671       8.630       8.584       8.509       8.391       8.270       8.174       8.063       7.863       7.442    
        6.867       6.364       6.064       5.871       5.645       5.246       4.798       4.473       4.260       4.027    
        3.766       3.407       2.935       2.508       2.007       1.415      0.8269      0.4712      0.2633       0.000    
   7    10.00       9.912       9.840       9.780       9.709       9.649       9.586       9.533       9.488       9.444    
        9.400       9.342       9.263       9.178       9.100       9.022       8.915       8.810       8.740       8.688    
        8.644       8.599       8.551       8.449       8.328       8.232       8.126       7.943       7.597       7.058    
        6.517       6.128       5.947       5.800       5.510       5.111       4.821       4.545       4.319       4.161    
        3.900       3.532       3.028       2.476       1.858       1.179      0.6929      0.4783      0.2423       0.000    
   8    10.00       9.906       9.840       9.776       9.711       9.659       9.604       9.553       9.509       9.467    
        9.403       9.318       9.235       9.160       9.087       8.990       8.862       8.764       8.711       8.661    
        8.609       8.571       8.490       8.379       8.271       8.157       7.954       7.662       7.183       6.718    
        6.321       6.022       5.888       5.708       5.377       5.074       4.836       4.635       4.460       4.276    
        4.006       3.554       2.973       2.344       1.640       1.064      0.7331      0.4691      0.2162       0.000    
   9    10.00       9.910       9.836       9.772       9.726       9.682       9.629       9.578       9.528       9.479    
        9.396       9.293       9.206       9.130       9.041       8.932       8.817       8.730       8.676       8.624    
        8.577       8.514       8.400       8.297       8.184       8.021       7.723       7.283       6.811       6.480    
        6.171       5.960       5.811       5.570       5.269       5.038       4.872       4.724       4.576       4.377    
        4.043       3.573       2.956       2.256       1.608       1.101      0.7478      0.4654      0.2308       0.000    
  10    10.00       9.908       9.833       9.780       9.739       9.696       9.650       9.605       9.546       9.468    
        9.367       9.262       9.178       9.094       9.000       8.873       8.758       8.689       8.641       8.589    
        8.541       8.436       8.314       8.200       8.040       7.790       7.339       6.867       6.504       6.257    
        6.078       5.910       5.705       5.459       5.210       5.042       4.924       4.803       4.637       4.405    
        4.047       3.534       2.876       2.251       1.740       1.261      0.8010      0.4943      0.2606       0.000    
  11    10.00       9.896       9.838       9.794       9.753       9.714       9.673       9.613       9.528       9.440    
        9.339       9.236       9.154       9.042       8.913       8.802       8.720       8.656       8.609       8.551    
        8.463       8.326       8.149       7.978       7.695       7.322       6.925       6.619       6.334       6.163    
        6.013       5.787       5.559       5.379       5.219       5.102       4.986       4.831       4.634       4.362    
        4.027       3.575       2.912       2.344       1.893       1.434      0.9240      0.4905      0.1970       0.000    
  12    10.00       9.905       9.847       9.801       9.766       9.726       9.680       9.598       9.497       9.406    
        9.309       9.207       9.096       8.960       8.854       8.759       8.673       8.620       8.558       8.469    
        8.292       8.057       7.809       7.552       7.202       6.919       6.719       6.402       6.172       6.044    
        5.887       5.674       5.501       5.353       5.255       5.150       5.012       4.836       4.602       4.318    
        3.989       3.549       2.944       2.439       2.032       1.537      0.9739      0.4651      0.1547       0.000    
  13    10.00       9.926       9.872       9.822       9.777       9.731       9.661       9.559       9.455       9.364    
        9.262       9.158       9.042       8.901       8.779       8.685       8.624       8.555       8.466       8.250    
        7.926       7.643       7.376       7.056       6.786       6.663       6.413       6.128       6.016       5.913    
        5.747       5.569       5.449       5.356       5.278       5.181       5.024       4.806       4.577       4.287    
        3.962       3.516       2.892       2.421       2.045       1.505      0.9073      0.4208      0.1216       0.000    
  14    10.00       9.945       9.897       9.843       9.789       9.717       9.615       9.508       9.414       9.311    
        9.209       9.114       8.974       8.816       8.705       8.630       8.529       8.420       8.205       7.824    
        7.481       7.231       6.882       6.624       6.506       6.369       6.112       5.951       5.836       5.736    
        5.600       5.500       5.434       5.365       5.285       5.187       5.010       4.772       4.528       4.232    
        3.886       3.348       2.762       2.382       1.921       1.401      0.8932      0.3838      9.8828E-02   0.000    
  15    10.00       9.957       9.907       9.853       9.790       9.680       9.555       9.460       9.367       9.267    
        9.190       9.078       8.894       8.721       8.619       8.483       8.346       8.207       7.843       7.400    
        7.120       6.767       6.453       6.360       6.291       6.110       5.906       5.750       5.670       5.600    
        5.525       5.474       5.428       5.371       5.288       5.168       4.963       4.691       4.436       4.165    
        3.791       3.268       2.764       2.254       1.694       1.229      0.7672      0.3377      0.1014       0.000    
  16    10.00       9.968       9.919       9.854       9.754       9.620       9.511       9.434       9.350       9.248    
        9.144       8.981       8.767       8.602       8.452       8.292       8.199       7.916       7.390       6.986    
        6.708       6.365       6.253       6.200       6.068       5.840       5.677       5.608       5.591       5.549    
        5.497       5.457       5.420       5.359       5.258       5.107       4.859       4.615       4.417       4.129    
        3.703       3.140       2.559       1.990       1.514       1.053      0.6529      0.3201      0.1080       0.000    
  17    10.00       9.967       9.915       9.829       9.705       9.569       9.479       9.408       9.312       9.197    
        9.021       8.815       8.623       8.442       8.258       8.104       7.873       7.400       6.915       6.641    
        6.372       6.167       6.080       5.953       5.746       5.579       5.539       5.539       5.532       5.497    
        5.461       5.432       5.399       5.339       5.189       4.983       4.772       4.605       4.418       4.055    
        3.486       2.911       2.354       1.795       1.294      0.8518      0.5467      0.2859      0.1175       0.000    
  18    10.00       9.959       9.897       9.793       9.637       9.528       9.457       9.360       9.249       9.087    
        8.874       8.691       8.499       8.255       8.013       7.758       7.422       6.948       6.592       6.355    
        6.140       5.971       5.838       5.655       5.517       5.477       5.469       5.471       5.455       5.432    
        5.416       5.398       5.359       5.253       5.096       4.924       4.752       4.604       4.341       3.853    
        3.271       2.658       2.060       1.600       1.201      0.7981      0.4694      0.2364      0.1133       0.000    
  19    10.00       9.949       9.881       9.729       9.573       9.508       9.428       9.308       9.171       8.997    
        8.803       8.631       8.351       7.980       7.694       7.434       7.032       6.607       6.371       6.192    
        5.971       5.766       5.620       5.482       5.416       5.405       5.402       5.386       5.360       5.358    
        5.354       5.341       5.282       5.182       5.054       4.890       4.738       4.522       4.068       3.560    
        3.089       2.454       1.885       1.519       1.122      0.7202      0.4240      0.2408      0.1234       0.000    
  20    10.00       9.938       9.822       9.666       9.552       9.482       9.395       9.265       9.113       8.954    
        8.755       8.491       8.072       7.707       7.456       7.137       6.742       6.514       6.300       6.052    
        5.809       5.627       5.477       5.380       5.333       5.310       5.281       5.275       5.262       5.273    
        5.279       5.268       5.206       5.117       4.988       4.848       4.657       4.262       3.772       3.366    
        2.853       2.266       1.840       1.486       1.086      0.6397      0.3708      0.2508      0.1293       0.000    
  21    10.00       9.897       9.772       9.641       9.529       9.456       9.360       9.209       9.057       8.906    
        8.639       8.236       7.813       7.541       7.262       6.929       6.639       6.424       6.167       5.906    
        5.676       5.499       5.368       5.267       5.199       5.148       5.131       5.140       5.143       5.161    
        5.184       5.161       5.099       5.019       4.891       4.740       4.440       4.025       3.640       3.149    
        2.662       2.198       1.839       1.480      0.9162      0.5191      0.3757      0.2835      0.1360       0.000    
  22    10.00       9.869       9.719       9.602       9.514       9.425       9.290       9.149       9.015       8.806    
        8.463       8.010       7.678       7.433       7.122       6.782       6.507       6.281       6.048       5.803    
        5.575       5.388       5.213       5.056       4.968       4.947       4.964       4.977       5.014       5.038    
        5.062       5.036       4.987       4.904       4.781       4.631       4.328       3.934       3.431       2.955    
        2.602       2.232       1.799       1.197      0.7171      0.5183      0.3942      0.2627      9.7233E-02   0.000    
  23    10.00       9.831       9.685       9.592       9.498       9.365       9.219       9.114       8.944       8.683    
        8.285       7.900       7.661       7.355       6.952       6.617       6.402       6.219       6.003       5.739    
        5.500       5.281       5.030       4.737       4.522       4.564       4.700       4.787       4.867       4.920    
        4.943       4.933       4.891       4.814       4.701       4.534       4.229       3.743       3.239       2.904    
        2.580       2.113       1.488      0.9692      0.7071      0.5294      0.3791      0.2239      8.9151E-02   0.000    
  24    10.00       9.804       9.699       9.588       9.454       9.315       9.204       9.087       8.924       8.580    
        8.208       7.923       7.653       7.245       6.805       6.565       6.384       6.204       5.959       5.711    
        5.498       5.220       4.819       4.265       3.590       3.860       4.266       4.549       4.716       4.802    
        4.847       4.845       4.817       4.734       4.605       4.393       4.006       3.546       3.170       2.822    
        2.423       1.901       1.340      0.9422      0.7099      0.5168      0.3466      0.2430      0.1193       0.000    
  25    10.00       9.827       9.719       9.579       9.440       9.313       9.201       9.094       8.851       8.519    
        8.232       7.944       7.590       7.144       6.818       6.602       6.396       6.180       5.956       5.743    
        5.498       5.232       4.659       3.607       1.739       3.121       3.866       4.310       4.584       4.729    
        4.785       4.790       4.753       4.638       4.460       4.168       3.801       3.439       3.117       2.710    
        2.229       1.728       1.255      0.9361      0.7371      0.5380      0.3657      0.2548      0.1587       0.000    
  26    10.00       9.850       9.746       9.599       9.449       9.334       9.216       9.058       8.819       8.587    
        8.318       7.923       7.492       7.132       6.884       6.673       6.434       6.167       5.951       5.772    
        5.568       5.304       4.808       4.031       3.172       3.523       3.969       4.298       4.551       4.710    
        4.759       4.754       4.687       4.547       4.349       4.071       3.666       3.320       3.015       2.517    
        1.970       1.528       1.245       1.023      0.7957      0.5814      0.3991      0.2771      0.1620       0.000    
  27    10.00       9.881       9.752       9.621       9.492       9.356       9.224       9.066       8.868       8.656    
        8.317       7.876       7.497       7.197       6.987       6.744       6.433       6.155       5.985       5.838    
        5.677       5.433       5.055       4.593       4.123       4.083       4.248       4.456       4.643       4.740    
        4.758       4.737       4.657       4.502       4.270       3.892       3.507       3.217       2.749       2.219    
        1.790       1.504       1.289       1.095      0.8706      0.6353      0.4340      0.3053      0.1927       0.000    
  28    10.00       9.890       9.785       9.666       9.540       9.396       9.250       9.098       8.926       8.679    
        8.285       7.900       7.570       7.274       7.051       6.814       6.559       6.288       6.046       5.892    
        5.764       5.588       5.342       5.003       4.711       4.535       4.562       4.694       4.758       4.788    
        4.776       4.735       4.635       4.434       4.125       3.728       3.389       2.977       2.483       2.101    
        1.791       1.547       1.337       1.134      0.9156      0.6938      0.4929      0.3481      0.1990       0.000    
  29    10.00       9.898       9.796       9.702       9.579       9.450       9.308       9.151       8.963       8.635    
        8.268       7.943       7.629       7.380       7.126       6.874       6.641       6.423       6.188       5.984    
        5.844       5.709       5.545       5.340       5.060       4.919       4.896       4.899       4.902       4.869    
        4.814       4.729       4.605       4.347       3.958       3.597       3.246       2.808       2.408       2.124    
        1.870       1.602       1.364       1.169      0.9721      0.7348      0.5215      0.3642      0.2020       0.000    
  30    10.00       9.912       9.827       9.746       9.637       9.509       9.381       9.203       8.951       8.654    
        8.283       7.932       7.676       7.427       7.188       6.958       6.770       6.566       6.336       6.119    
        5.946       5.831       5.689       5.549       5.394       5.268       5.224       5.125       5.065       4.973    
        4.853       4.703       4.519       4.241       3.924       3.577       3.196       2.780       2.472       2.210    
        1.907       1.638       1.429       1.207      0.9724      0.7617      0.5567      0.3873      0.2177       0.000    
  31    10.00       9.931       9.861       9.784       9.703       9.600       9.456       9.237       8.951       8.637    
        8.283       7.969       7.735       7.492       7.270       7.059       6.870       6.710       6.479       6.260    
        6.101       5.976       5.866       5.758       5.681       5.566       5.440       5.333       5.202       5.059    
        4.869       4.664       4.466       4.229       3.920       3.549       3.157       2.809       2.586       2.337    
        2.001       1.704       1.465       1.239       1.020      0.8030      0.5910      0.4082      0.2115       0.000    
  32    10.00       9.940       9.891       9.825       9.748       9.651       9.499       9.249       8.991       8.694    
        8.329       8.037       7.816       7.568       7.334       7.162       6.995       6.806       6.621       6.404    
        6.240       6.108       6.012       5.926       5.836       5.741       5.593       5.462       5.309       5.113    
        4.886       4.666       4.447       4.213       3.908       3.570       3.260       2.959       2.703       2.420    
        2.110       1.814       1.561       1.299       1.060      0.8753      0.6534      0.4016      0.1795       0.000    
  33    10.00       9.950       9.911       9.855       9.778       9.676       9.481       9.236       9.028       8.763    
        8.429       8.152       7.893       7.617       7.412       7.265       7.120       6.926       6.721       6.538    
        6.355       6.223       6.108       6.011       5.928       5.834       5.695       5.526       5.369       5.178    
        4.945       4.733       4.498       4.199       3.909       3.604       3.351       3.113       2.827       2.514    
        2.243       1.961       1.682       1.411       1.158      0.9509      0.7016      0.4054      0.1763       0.000    
  34    10.00       9.959       9.930       9.883       9.783       9.636       9.458       9.288       9.073       8.812    
        8.529       8.230       7.944       7.677       7.506       7.383       7.227       7.043       6.815       6.641    
        6.481       6.318       6.194       6.093       6.012       5.903       5.748       5.587       5.413       5.196    
        4.993       4.808       4.584       4.289       3.991       3.703       3.462       3.230       2.930       2.642    
        2.397       2.125       1.819       1.548       1.290       1.052      0.7533      0.4576      0.2399       0.000    
  35    10.00       9.966       9.931       9.865       9.744       9.602       9.475       9.329       9.157       8.878    
        8.571       8.278       7.992       7.768       7.611       7.482       7.319       7.126       6.909       6.704    
        6.559       6.410       6.283       6.186       6.097       5.986       5.811       5.618       5.417       5.195    
        5.037       4.855       4.620       4.403       4.148       3.840       3.568       3.368       3.078       2.766    
        2.528       2.248       1.941       1.674       1.405       1.143      0.8650      0.5734      0.2837       0.000    
  36    10.00       9.959       9.903       9.833       9.721       9.590       9.485       9.362       9.179       8.914    
        8.586       8.280       8.076       7.899       7.745       7.582       7.391       7.201       6.978       6.729    
        6.570       6.458       6.344       6.263       6.170       6.034       5.846       5.633       5.394       5.181    
        5.039       4.892       4.681       4.467       4.251       3.973       3.696       3.477       3.216       2.873    
        2.611       2.299       1.992       1.787       1.526       1.234      0.9549      0.6500      0.3181       0.000    
  37    10.00       9.938       9.880       9.810       9.702       9.589       9.471       9.355       9.191       8.888    
        8.551       8.315       8.190       8.022       7.832       7.674       7.449       7.218       6.952       6.707    
        6.586       6.493       6.384       6.299       6.195       6.035       5.846       5.585       5.360       5.207    
        5.072       4.907       4.697       4.525       4.303       4.039       3.820       3.607       3.313       2.937    
        2.592       2.299       2.084       1.871       1.609       1.332       1.053      0.7171      0.3938       0.000    
  38    10.00       9.931       9.857       9.785       9.692       9.585       9.463       9.339       9.154       8.873    
        8.620       8.430       8.271       8.121       7.922       7.677       7.434       7.178       6.888       6.712    
        6.613       6.497       6.396       6.321       6.210       6.023       5.753       5.503       5.374       5.252    
        5.108       4.931       4.737       4.565       4.346       4.102       3.921       3.705       3.330       2.914    
        2.615       2.368       2.155       1.935       1.702       1.421       1.143      0.8294      0.4100       0.000    
  39    10.00       9.913       9.842       9.777       9.689       9.570       9.443       9.317       9.144       8.915    
        8.718       8.572       8.395       8.196       7.927       7.632       7.361       7.071       6.859       6.736    
        6.602       6.472       6.393       6.323       6.220       5.980       5.698       5.531       5.408       5.282    
        5.122       4.951       4.763       4.589       4.422       4.219       3.981       3.719       3.348       2.960    
        2.643       2.388       2.220       2.036       1.774       1.496       1.213      0.8633      0.4046       0.000    
  40    10.00       9.904       9.837       9.772       9.683       9.563       9.439       9.316       9.162       8.973    
        8.810       8.685       8.480       8.186       7.859       7.565       7.279       7.026       6.865       6.725    
        6.573       6.456       6.384       6.304       6.168       5.958       5.755       5.582       5.441       5.311    
        5.154       4.968       4.788       4.641       4.492       4.287       4.011       3.737       3.360       2.943    
        2.646       2.444       2.258       2.100       1.825       1.520       1.262      0.8656      0.4030       0.000    
  41    10.00       9.914       9.837       9.760       9.666       9.571       9.468       9.354       9.203       9.032    
        8.877       8.732       8.483       8.143       7.806       7.530       7.247       7.002       6.847       6.698    
        6.547       6.442       6.367       6.272       6.129       5.965       5.825       5.655       5.478       5.324    
        5.173       5.002       4.828       4.699       4.541       4.336       4.060       3.680       3.247       2.925    
        2.709       2.513       2.321       2.102       1.815       1.523       1.302      0.9220      0.4181       0.000    
  42    10.00       9.915       9.828       9.761       9.692       9.605       9.496       9.368       9.240       9.110    
        8.921       8.682       8.395       8.074       7.763       7.509       7.233       6.990       6.826       6.659    
        6.517       6.425       6.344       6.256       6.121       6.003       5.883       5.692       5.495       5.355    
        5.228       5.041       4.854       4.728       4.581       4.362       4.023       3.575       3.177       2.938    
        2.774       2.600       2.355       2.063       1.788       1.559       1.330      0.9723      0.4798       0.000    
  43    10.00       9.908       9.836       9.779       9.724       9.641       9.535       9.414       9.275       9.082    
        8.848       8.604       8.335       8.001       7.720       7.485       7.238       6.994       6.786       6.631    
        6.501       6.408       6.337       6.263       6.147       6.022       5.901       5.704       5.531       5.427    
        5.272       5.069       4.888       4.758       4.586       4.303       3.911       3.486       3.196       3.012    
        2.838       2.637       2.337       2.036       1.793       1.573       1.375      0.9860      0.4506       0.000    
  44    10.00       9.908       9.845       9.794       9.729       9.668       9.581       9.424       9.224       9.006    
        8.810       8.562       8.240       7.961       7.734       7.466       7.195       6.943       6.736       6.599    
        6.501       6.419       6.345       6.267       6.167       6.039       5.876       5.712       5.594       5.469    
        5.330       5.153       4.944       4.746       4.537       4.220       3.808       3.458       3.233       3.055    
        2.880       2.642       2.352       2.092       1.832       1.595       1.353      0.8902      0.4094       0.000    
  45    10.00       9.918       9.860       9.794       9.731       9.678       9.540       9.357       9.156       8.969    
        8.808       8.481       8.146       7.943       7.702       7.407       7.114       6.880       6.710       6.599    
        6.523       6.444       6.362       6.270       6.158       6.034       5.895       5.768       5.663       5.534    
        5.372       5.189       4.975       4.724       4.474       4.132       3.746       3.470       3.299       3.115    
        2.882       2.608       2.360       2.123       1.893       1.657       1.264      0.7912      0.3982       0.000    
  46    10.00       9.934       9.872       9.795       9.723       9.621       9.473       9.334       9.166       8.966    
        8.702       8.392       8.124       7.866       7.611       7.326       7.054       6.879       6.739       6.631    
        6.554       6.478       6.374       6.259       6.150       6.045       5.935       5.817       5.712       5.598    
        5.452       5.259       5.015       4.719       4.361       4.006       3.719       3.524       3.345       3.154    
        2.878       2.587       2.339       2.151       1.931       1.624       1.177      0.7559      0.3727       0.000    
  47    10.00       9.947       9.888       9.812       9.690       9.555       9.428       9.320       9.167       8.904    
        8.588       8.304       8.071       7.856       7.585       7.275       7.034       6.868       6.756       6.666    
        6.583       6.494       6.386       6.264       6.158       6.074       5.982       5.866       5.745       5.632    
        5.506       5.344       5.021       4.606       4.256       4.000       3.759       3.591       3.433       3.168    
        2.832       2.523       2.299       2.169       1.926       1.550       1.113      0.7294      0.3686       0.000    
  48    10.00       9.952       9.892       9.780       9.655       9.538       9.411       9.301       9.147       8.851    
        8.506       8.268       8.078       7.815       7.499       7.219       7.038       6.871       6.760       6.689    
        6.605       6.499       6.382       6.270       6.182       6.115       6.032       5.904       5.764       5.643    
        5.510       5.316       4.980       4.635       4.323       4.040       3.825       3.652       3.450       3.115    
        2.752       2.515       2.336       2.106       1.786       1.453       1.078      0.7349      0.3891       0.000    
  49    10.00       9.950       9.860       9.751       9.657       9.532       9.408       9.293       9.098       8.785    
        8.477       8.250       8.011       7.746       7.507       7.246       6.994       6.839       6.771       6.705    
        6.626       6.503       6.368       6.270       6.203       6.153       6.058       5.911       5.763       5.654    
        5.510       5.255       4.958       4.714       4.452       4.140       3.863       3.650       3.412       3.052    
        2.760       2.551       2.304       1.973       1.689       1.388       1.061      0.7472      0.3806       0.000    
  50    10.00       9.937       9.838       9.738       9.663       9.547       9.409       9.262       9.052       8.805    
        8.493       8.188       7.940       7.728       7.537       7.244       6.957       6.839       6.780       6.716    
        6.640       6.502       6.357       6.268       6.215       6.169       6.064       5.905       5.764       5.652    
        5.495       5.227       4.998       4.789       4.506       4.196       3.915       3.633       3.290       2.971    
        2.816       2.596       2.236       1.903       1.665       1.378       1.093      0.7299      0.2998       0.000    

 HEAD WILL BE SAVED ON UNIT   51 AT END OF TIME STEP  99, STRESS PERIOD    2

 DRAWDOWN WILL BE SAVED ON UNIT   52 AT END OF TIME STEP  99, STRESS PERIOD    2
1
  VOLUMETRIC BUDGET FOR ENTIRE MODEL AT END OF TIME STEP 99 IN STRESS PERIOD   2
  ------------------------------------------------------------------------------

     CUMULATIVE VOLUMES      L**3       RATES FOR THIS TIME STEP      L**3/T
     ------------------                 ------------------------

           IN:                                      IN:
           ---                                      ---
             STORAGE =       44568.3750               STORAGE =         362.9790
       CONSTANT HEAD =       58578.2383         CONSTANT HEAD =         662.8683
               WELLS =           0.0000                 WELLS =           0.0000

            TOTAL IN =      103146.6094              TOTAL IN =        1025.8473

          OUT:                                     OUT:
          ----                                     ----
             STORAGE =       9.3745E-03               STORAGE =           0.0000
       CONSTANT HEAD =       53646.5781         CONSTANT HEAD =         525.8474
               WELLS =       49500.0000                 WELLS =         500.0000

           TOTAL OUT =      103146.5859             TOTAL OUT =        1025.8474

            IN - OUT =       2.3438E-02              IN - OUT =      -1.2207E-04

 PERCENT DISCREPANCY =           0.00     PERCENT DISCREPANCY =           0.00






          TIME SUMMARY AT END OF TIME STEP  99 IN STRESS PERIOD    2
                    SECONDS     MINUTES      HOURS       DAYS        YEARS
                    -----------------------------------------------------------
   TIME STEP LENGTH  86400.      1440.0      24.000      1.0000     2.73785E-03
 STRESS PERIOD TIME 8.55360E+06 1.42560E+05  2376.0      99.000     0.27105    
         TOTAL TIME 8.64000E+06 1.44000E+05  2400.0      100.00     0.27379    
1
 
 SOLVING FOR HEAD 

 OUTPUT CONTROL FOR STRESS PERIOD    2   TIME STEP 100
    SAVE HEAD FOR ALL LAYERS
    SAVE DRAWDOWN FOR ALL LAYERS
    SAVE BUDGET
    PRINT HEAD FOR ALL LAYERS
    PRINT BUDGET
 UBDSV1 SAVING "         STORAGE" ON UNIT  53 AT TIME STEP100, STRESS PERIOD   2
 UBDSV2 SAVING "   CONSTANT HEAD" ON UNIT  53 AT TIME STEP100, STRESS PERIOD   2
 UBDSV1 SAVING "FLOW RIGHT FACE " ON UNIT  53 AT TIME STEP100, STRESS PERIOD   2
 UBDSV1 SAVING "FLOW FRONT FACE " ON UNIT  53 AT TIME STEP100, STRESS PERIOD   2
1
              HEAD IN LAYER   1 AT END OF TIME STEP 100 IN STRESS PERIOD    2
  ---------------------------------------------------------------------------

            1           2           3           4           5           6           7           8           9          10
           11          12          13          14          15          16          17          18          19          20
           21          22          23          24          25          26          27          28          29          30
           31          32          33          34          35          36          37          38          39          40
           41          42          43          44          45          46          47          48          49          50
 ........................................................................................................................
   1    10.00       9.949       9.880       9.811       9.754       9.684       9.616       9.544       9.448       9.369    
        9.323       9.277       9.226       9.176       9.095       9.007       8.911       8.836       8.802       8.766    
        8.721       8.683       8.644       8.596       8.530       8.415       8.279       8.146       7.995       7.846    
        7.635       7.301       6.908       6.495       6.034       5.608       5.250       4.918       4.467       3.978    
        3.564       3.156       2.594       2.062       1.690       1.317       1.004      0.8026      0.5323       0.000    
   2    10.00       9.949       9.887       9.818       9.757       9.692       9.616       9.522       9.429       9.369    
        9.328       9.286       9.247       9.184       9.091       9.000       8.912       8.839       8.803       8.761    
        8.715       8.686       8.655       8.604       8.528       8.418       8.280       8.142       8.001       7.852    
        7.623       7.277       6.863       6.396       5.931       5.521       5.201       4.876       4.419       3.959    
        3.541       3.052       2.546       2.126       1.757       1.410       1.053      0.7622      0.4070       0.000    
   3    10.00       9.944       9.885       9.821       9.759       9.685       9.590       9.500       9.442       9.387    
        9.339       9.303       9.264       9.205       9.112       8.998       8.905       8.844       8.799       8.757    
        8.719       8.688       8.657       8.592       8.509       8.398       8.266       8.161       8.011       7.836    
        7.539       7.136       6.691       6.236       5.811       5.434       5.150       4.814       4.317       3.871    
        3.524       3.081       2.617       2.215       1.833       1.484       1.062      0.6537      0.2875       0.000    
   4    10.00       9.948       9.888       9.819       9.742       9.656       9.566       9.499       9.449       9.397    
        9.356       9.325       9.282       9.218       9.132       9.008       8.904       8.848       8.799       8.759    
        8.716       8.678       8.638       8.569       8.485       8.376       8.246       8.128       8.010       7.788    
        7.401       6.904       6.426       6.078       5.766       5.404       5.041       4.614       4.194       3.872    
        3.567       3.177       2.716       2.320       1.921       1.498       1.013      0.5802      0.2703       0.000    
   5    10.00       9.944       9.880       9.802       9.722       9.642       9.563       9.507       9.455       9.410    
        9.374       9.341       9.291       9.216       9.116       9.002       8.913       8.851       8.801       8.745    
        8.694       8.656       8.605       8.535       8.456       8.329       8.200       8.099       7.981       7.691    
        7.178       6.625       6.231       5.969       5.689       5.327       4.912       4.492       4.200       3.930    
        3.657       3.258       2.780       2.436       2.030       1.478      0.9214      0.5353      0.2693       0.000    
   6    10.00       9.931       9.855       9.793       9.719       9.636       9.569       9.518       9.464       9.423    
        9.390       9.350       9.284       9.196       9.110       9.016       8.920       8.843       8.778       8.713    
        8.668       8.626       8.580       8.505       8.387       8.266       8.170       8.059       7.859       7.438    
        6.862       6.359       6.059       5.866       5.640       5.241       4.793       4.468       4.255       4.022    
        3.762       3.404       2.932       2.506       2.005       1.413      0.8260      0.4707      0.2630       0.000    
   7    10.00       9.911       9.840       9.780       9.708       9.648       9.585       9.532       9.486       9.443    
        9.398       9.341       9.261       9.176       9.098       9.020       8.912       8.807       8.737       8.685    
        8.641       8.595       8.547       8.445       8.324       8.228       8.122       7.939       7.592       7.053    
        6.511       6.122       5.941       5.795       5.504       5.105       4.815       4.539       4.314       4.156    
        3.895       3.528       3.024       2.474       1.856       1.178      0.6922      0.4778      0.2420       0.000    
   8    10.00       9.906       9.839       9.775       9.711       9.658       9.603       9.552       9.508       9.466    
        9.401       9.316       9.233       9.158       9.084       8.987       8.859       8.761       8.707       8.658    
        8.605       8.567       8.486       8.375       8.267       8.153       7.949       7.657       7.178       6.712    
        6.315       6.016       5.882       5.702       5.371       5.068       4.830       4.629       4.454       4.271    
        4.002       3.550       2.970       2.342       1.638       1.063      0.7323      0.4686      0.2160       0.000    
   9    10.00       9.910       9.835       9.772       9.726       9.681       9.628       9.577       9.527       9.478    
        9.395       9.291       9.204       9.128       9.039       8.930       8.814       8.727       8.673       8.620    
        8.573       8.510       8.397       8.293       8.180       8.016       7.718       7.278       6.805       6.474    
        6.164       5.954       5.805       5.564       5.263       5.032       4.866       4.719       4.571       4.371    
        4.038       3.569       2.953       2.253       1.606       1.100      0.7470      0.4649      0.2305       0.000    
  10    10.00       9.908       9.832       9.780       9.739       9.695       9.649       9.604       9.545       9.466    
        9.365       9.260       9.175       9.091       8.997       8.870       8.755       8.685       8.638       8.586    
        8.537       8.432       8.310       8.195       8.035       7.785       7.334       6.861       6.497       6.250    
        6.071       5.903       5.698       5.452       5.203       5.036       4.918       4.798       4.632       4.400    
        4.042       3.530       2.873       2.249       1.738       1.260      0.8001      0.4938      0.2603       0.000    
  11    10.00       9.896       9.837       9.793       9.752       9.714       9.672       9.612       9.527       9.438    
        9.337       9.234       9.152       9.039       8.910       8.799       8.717       8.652       8.605       8.548    
        8.459       8.322       8.145       7.973       7.690       7.317       6.919       6.613       6.327       6.155    
        6.005       5.780       5.552       5.372       5.212       5.096       4.980       4.825       4.628       4.356    
        4.022       3.570       2.908       2.341       1.891       1.432      0.9230      0.4900      0.1968       0.000    
  12    10.00       9.905       9.847       9.800       9.765       9.725       9.679       9.597       9.495       9.404    
        9.307       9.204       9.094       8.957       8.851       8.755       8.669       8.617       8.554       8.465    
        8.288       8.053       7.804       7.547       7.196       6.913       6.712       6.395       6.165       6.037    
        5.879       5.667       5.494       5.346       5.248       5.143       5.005       4.830       4.596       4.313    
        3.984       3.545       2.940       2.436       2.029       1.536      0.9728      0.4646      0.1545       0.000    
  13    10.00       9.926       9.872       9.821       9.776       9.730       9.660       9.558       9.453       9.363    
        9.260       9.156       9.039       8.898       8.776       8.681       8.621       8.551       8.462       8.246    
        7.921       7.637       7.369       7.049       6.778       6.656       6.406       6.120       6.008       5.905    
        5.739       5.561       5.442       5.349       5.271       5.174       5.017       4.799       4.571       4.281    
        3.957       3.511       2.889       2.418       2.042       1.503      0.9063      0.4203      0.1215       0.000    
  14    10.00       9.945       9.896       9.843       9.788       9.716       9.614       9.506       9.412       9.309    
        9.207       9.111       8.971       8.813       8.701       8.626       8.525       8.416       8.200       7.819    
        7.475       7.224       6.874       6.616       6.498       6.361       6.104       5.943       5.828       5.728    
        5.592       5.491       5.426       5.357       5.278       5.180       5.003       4.765       4.522       4.227    
        3.881       3.344       2.758       2.380       1.918       1.400      0.8922      0.3834      9.8719E-02   0.000    
  15    10.00       9.957       9.907       9.852       9.789       9.679       9.553       9.459       9.365       9.265    
        9.188       9.075       8.890       8.717       8.615       8.479       8.341       8.202       7.838       7.394    
        7.113       6.759       6.445       6.352       6.283       6.102       5.898       5.741       5.661       5.592    
        5.517       5.466       5.420       5.363       5.280       5.161       4.955       4.685       4.430       4.159    
        3.786       3.264       2.760       2.251       1.692       1.228      0.7663      0.3373      0.1012       0.000    
  16    10.00       9.968       9.919       9.854       9.754       9.618       9.510       9.433       9.348       9.245    
        9.141       8.978       8.763       8.598       8.448       8.287       8.194       7.911       7.383       6.979    
        6.700       6.357       6.245       6.191       6.059       5.831       5.668       5.599       5.582       5.540    
        5.489       5.449       5.412       5.350       5.250       5.100       4.852       4.608       4.410       4.123    
        3.698       3.136       2.555       1.987       1.512       1.052      0.6521      0.3197      0.1079       0.000    
  17    10.00       9.967       9.915       9.828       9.704       9.567       9.477       9.406       9.310       9.194    
        9.018       8.811       8.619       8.438       8.253       8.099       7.867       7.393       6.908       6.633    
        6.363       6.159       6.071       5.944       5.737       5.570       5.530       5.529       5.523       5.488    
        5.452       5.424       5.390       5.330       5.181       4.975       4.765       4.597       4.411       4.049    
        3.481       2.907       2.351       1.792       1.293      0.8508      0.5460      0.2855      0.1174       0.000    
  18    10.00       9.959       9.897       9.793       9.636       9.526       9.455       9.358       9.247       9.084    
        8.871       8.687       8.495       8.250       8.008       7.752       7.416       6.941       6.583       6.347    
        6.131       5.962       5.829       5.646       5.508       5.468       5.460       5.462       5.446       5.423    
        5.407       5.389       5.350       5.244       5.088       4.916       4.745       4.596       4.334       3.847    
        3.266       2.654       2.057       1.598       1.199      0.7971      0.4689      0.2361      0.1132       0.000    
  19    10.00       9.949       9.880       9.728       9.571       9.507       9.426       9.306       9.169       8.993    
        8.799       8.626       8.346       7.974       7.688       7.428       7.025       6.599       6.363       6.183    
        5.962       5.757       5.611       5.473       5.407       5.395       5.393       5.376       5.351       5.349    
        5.345       5.332       5.273       5.173       5.046       4.882       4.730       4.515       4.062       3.555    
        3.085       2.450       1.883       1.517       1.121      0.7193      0.4235      0.2405      0.1232       0.000    
  20    10.00       9.938       9.821       9.664       9.550       9.481       9.392       9.263       9.110       8.951    
        8.751       8.486       8.067       7.701       7.449       7.130       6.734       6.505       6.291       6.043    
        5.800       5.618       5.467       5.371       5.323       5.300       5.271       5.265       5.252       5.263    
        5.270       5.258       5.196       5.108       4.979       4.840       4.649       4.254       3.765       3.361    
        2.849       2.263       1.838       1.484       1.084      0.6389      0.3703      0.2505      0.1291       0.000    
  21    10.00       9.896       9.771       9.640       9.528       9.454       9.358       9.206       9.054       8.903    
        8.634       8.230       7.807       7.534       7.254       6.921       6.631       6.415       6.158       5.897    
        5.667       5.489       5.358       5.257       5.190       5.139       5.122       5.130       5.134       5.152    
        5.174       5.151       5.089       5.009       4.882       4.731       4.432       4.018       3.634       3.144    
        2.658       2.195       1.836       1.478      0.9150      0.5185      0.3752      0.2832      0.1359       0.000    
  22    10.00       9.869       9.718       9.601       9.512       9.423       9.287       9.146       9.011       8.802    
        8.458       8.004       7.671       7.426       7.114       6.774       6.499       6.272       6.039       5.794    
        5.566       5.378       5.203       5.047       4.958       4.938       4.954       4.967       5.004       5.028    
        5.052       5.026       4.977       4.894       4.772       4.622       4.319       3.927       3.425       2.950    
        2.598       2.229       1.797       1.196      0.7163      0.5177      0.3938      0.2624      9.7123E-02   0.000    
  23    10.00       9.830       9.683       9.591       9.496       9.363       9.216       9.111       8.940       8.679    
        8.279       7.893       7.654       7.348       6.944       6.609       6.394       6.210       5.994       5.730    
        5.490       5.271       5.020       4.727       4.513       4.554       4.690       4.777       4.857       4.910    
        4.932       4.922       4.881       4.804       4.691       4.525       4.221       3.736       3.233       2.899    
        2.576       2.110       1.486      0.9680      0.7062      0.5288      0.3786      0.2237      8.9055E-02   0.000    
  24    10.00       9.804       9.698       9.587       9.452       9.313       9.201       9.084       8.920       8.576    
        8.203       7.917       7.646       7.238       6.797       6.557       6.375       6.195       5.950       5.702    
        5.489       5.211       4.809       4.255       3.579       3.850       4.256       4.538       4.706       4.791    
        4.836       4.835       4.807       4.724       4.596       4.384       3.999       3.540       3.164       2.817    
        2.420       1.898       1.339      0.9411      0.7091      0.5163      0.3462      0.2428      0.1192       0.000    
  25    10.00       9.826       9.718       9.578       9.438       9.310       9.198       9.091       8.847       8.514    
        8.226       7.938       7.583       7.137       6.809       6.594       6.388       6.171       5.947       5.734    
        5.488       5.222       4.650       3.597       1.728       3.110       3.856       4.299       4.574       4.718    
        4.774       4.779       4.743       4.628       4.451       4.159       3.794       3.433       3.112       2.706    
        2.225       1.726       1.253      0.9351      0.7363      0.5374      0.3653      0.2546      0.1585       0.000    
  26    10.00       9.850       9.745       9.598       9.448       9.332       9.213       9.055       8.815       8.583    
        8.312       7.917       7.485       7.124       6.876       6.664       6.425       6.159       5.942       5.763    
        5.559       5.295       4.799       4.021       3.162       3.513       3.958       4.288       4.541       4.700    
        4.749       4.744       4.677       4.537       4.340       4.063       3.659       3.314       3.010       2.513    
        1.967       1.527       1.244       1.022      0.7949      0.5809      0.3987      0.2769      0.1618       0.000    
  27    10.00       9.881       9.752       9.620       9.491       9.354       9.222       9.063       8.865       8.652    
        8.312       7.870       7.490       7.190       6.980       6.736       6.425       6.146       5.976       5.829    
        5.668       5.423       5.045       4.583       4.112       4.073       4.238       4.445       4.633       4.729    
        4.748       4.727       4.647       4.493       4.262       3.884       3.501       3.212       2.745       2.216    
        1.787       1.502       1.288       1.094      0.8697      0.6346      0.4336      0.3050      0.1925       0.000    
  28    10.00       9.889       9.784       9.665       9.538       9.394       9.248       9.095       8.922       8.675    
        8.280       7.894       7.563       7.267       7.044       6.806       6.551       6.280       6.037       5.883    
        5.755       5.579       5.333       4.994       4.701       4.525       4.552       4.683       4.748       4.777    
        4.766       4.725       4.625       4.425       4.117       3.722       3.384       2.972       2.479       2.099    
        1.789       1.545       1.335       1.133      0.9147      0.6932      0.4925      0.3477      0.1988       0.000    
  29    10.00       9.898       9.795       9.701       9.578       9.448       9.306       9.148       8.959       8.631    
        8.263       7.937       7.623       7.373       7.119       6.866       6.633       6.415       6.179       5.975    
        5.835       5.700       5.535       5.331       5.051       4.909       4.886       4.889       4.892       4.858    
        4.804       4.719       4.596       4.338       3.951       3.592       3.241       2.805       2.405       2.122    
        1.868       1.601       1.362       1.168      0.9712      0.7341      0.5211      0.3639      0.2019       0.000    
  30    10.00       9.912       9.827       9.745       9.635       9.507       9.379       9.200       8.948       8.649    
        8.278       7.926       7.670       7.421       7.181       6.951       6.762       6.558       6.327       6.110    
        5.937       5.821       5.680       5.540       5.384       5.258       5.214       5.115       5.055       4.963    
        4.844       4.695       4.511       4.234       3.918       3.571       3.192       2.777       2.469       2.208    
        1.905       1.636       1.428       1.206      0.9715      0.7610      0.5563      0.3870      0.2175       0.000    
  31    10.00       9.930       9.861       9.784       9.702       9.599       9.454       9.234       8.948       8.633    
        8.278       7.963       7.729       7.486       7.263       7.052       6.862       6.702       6.471       6.251    
        6.092       5.967       5.857       5.749       5.672       5.557       5.431       5.323       5.193       5.049    
        4.861       4.656       4.459       4.222       3.915       3.544       3.154       2.806       2.583       2.335    
        1.999       1.702       1.464       1.238       1.019      0.8023      0.5905      0.4079      0.2113       0.000    
  32    10.00       9.940       9.891       9.824       9.747       9.650       9.498       9.247       8.988       8.690    
        8.324       8.032       7.810       7.561       7.327       7.155       6.988       6.798       6.613       6.396    
        6.232       6.100       6.003       5.917       5.827       5.732       5.584       5.453       5.300       5.105    
        4.879       4.659       4.441       4.207       3.903       3.566       3.257       2.956       2.700       2.418    
        2.108       1.812       1.559       1.298       1.059      0.8747      0.6529      0.4014      0.1794       0.000    
  33    10.00       9.950       9.911       9.855       9.777       9.675       9.479       9.234       9.025       8.760    
        8.425       8.147       7.887       7.611       7.406       7.258       7.113       6.919       6.713       6.530    
        6.347       6.215       6.100       6.002       5.920       5.825       5.686       5.517       5.361       5.170    
        4.939       4.727       4.492       4.194       3.905       3.600       3.348       3.110       2.824       2.512    
        2.242       1.960       1.681       1.410       1.157      0.9503      0.7012      0.4051      0.1762       0.000    
  34    10.00       9.959       9.929       9.882       9.782       9.635       9.456       9.286       9.070       8.809    
        8.525       8.225       7.939       7.671       7.499       7.377       7.221       7.036       6.807       6.633    
        6.473       6.311       6.186       6.085       6.004       5.895       5.740       5.579       5.406       5.189    
        4.987       4.803       4.578       4.285       3.987       3.700       3.459       3.227       2.928       2.640    
        2.395       2.124       1.818       1.547       1.290       1.051      0.7529      0.4574      0.2398       0.000    
  35    10.00       9.966       9.930       9.864       9.743       9.601       9.474       9.327       9.155       8.875    
        8.568       8.273       7.987       7.763       7.606       7.476       7.313       7.120       6.902       6.697    
        6.552       6.403       6.276       6.179       6.090       5.978       5.804       5.611       5.411       5.189    
        5.032       4.851       4.616       4.400       4.145       3.837       3.565       3.366       3.076       2.764    
        2.526       2.247       1.940       1.673       1.404       1.143      0.8646      0.5732      0.2836       0.000    
  36    10.00       9.959       9.903       9.832       9.721       9.589       9.483       9.361       9.177       8.911    
        8.583       8.276       8.071       7.894       7.739       7.576       7.385       7.194       6.971       6.723    
        6.564       6.452       6.338       6.257       6.164       6.027       5.840       5.628       5.389       5.177    
        5.035       4.888       4.677       4.464       4.248       3.971       3.694       3.475       3.214       2.871    
        2.610       2.298       1.991       1.787       1.525       1.234      0.9545      0.6497      0.3179       0.000    
  37    10.00       9.938       9.880       9.809       9.702       9.588       9.469       9.354       9.189       8.885    
        8.548       8.311       8.186       8.018       7.827       7.669       7.444       7.212       6.947       6.702    
        6.580       6.487       6.378       6.293       6.189       6.029       5.841       5.580       5.356       5.203    
        5.069       4.903       4.694       4.523       4.300       4.037       3.818       3.605       3.311       2.935    
        2.591       2.298       2.083       1.870       1.608       1.332       1.052      0.7168      0.3936       0.000    
  38    10.00       9.931       9.857       9.784       9.691       9.584       9.462       9.337       9.152       8.870    
        8.617       8.426       8.267       8.117       7.917       7.672       7.428       7.173       6.882       6.707    
        6.607       6.492       6.391       6.316       6.205       6.018       5.749       5.500       5.370       5.249    
        5.105       4.928       4.734       4.562       4.344       4.100       3.919       3.703       3.328       2.913    
        2.613       2.367       2.154       1.934       1.702       1.421       1.142      0.8291      0.4098       0.000    
  39    10.00       9.913       9.841       9.776       9.688       9.569       9.441       9.316       9.143       8.913    
        8.715       8.569       8.392       8.193       7.923       7.628       7.357       7.066       6.854       6.732    
        6.597       6.467       6.389       6.319       6.216       5.976       5.694       5.528       5.405       5.279    
        5.119       4.949       4.760       4.586       4.419       4.217       3.979       3.717       3.347       2.959    
        2.642       2.387       2.219       2.035       1.773       1.495       1.212      0.8630      0.4044       0.000    
  40    10.00       9.904       9.837       9.772       9.683       9.562       9.438       9.315       9.161       8.971    
        8.808       8.682       8.477       8.183       7.856       7.561       7.275       7.022       6.861       6.721    
        6.569       6.452       6.380       6.300       6.164       5.954       5.752       5.579       5.438       5.308    
        5.151       4.965       4.786       4.638       4.490       4.285       4.009       3.735       3.358       2.942    
        2.645       2.443       2.257       2.099       1.824       1.520       1.261      0.8652      0.4029       0.000    
  41    10.00       9.914       9.837       9.760       9.665       9.571       9.467       9.353       9.202       9.030    
        8.875       8.730       8.480       8.140       7.803       7.527       7.244       6.998       6.843       6.695    
        6.543       6.438       6.363       6.268       6.125       5.962       5.822       5.652       5.475       5.322    
        5.170       5.000       4.826       4.696       4.538       4.334       4.058       3.679       3.245       2.924    
        2.708       2.512       2.320       2.101       1.815       1.523       1.301      0.9216      0.4179       0.000    
  42    10.00       9.915       9.828       9.761       9.691       9.604       9.495       9.367       9.239       9.108    
        8.920       8.680       8.393       8.071       7.760       7.506       7.230       6.987       6.823       6.656    
        6.514       6.421       6.341       6.253       6.118       6.000       5.880       5.689       5.492       5.353    
        5.225       5.039       4.851       4.725       4.579       4.360       4.021       3.574       3.176       2.936    
        2.773       2.599       2.354       2.062       1.787       1.559       1.329      0.9720      0.4796       0.000    
  43    10.00       9.908       9.835       9.778       9.723       9.641       9.534       9.413       9.274       9.081    
        8.846       8.602       8.333       7.999       7.717       7.483       7.235       6.991       6.783       6.628    
        6.498       6.405       6.334       6.260       6.144       6.019       5.898       5.702       5.529       5.424    
        5.269       5.067       4.885       4.755       4.584       4.301       3.909       3.485       3.194       3.010    
        2.837       2.636       2.336       2.036       1.793       1.573       1.375      0.9856      0.4505       0.000    
  44    10.00       9.908       9.845       9.794       9.729       9.667       9.580       9.423       9.223       9.005    
        8.809       8.560       8.238       7.959       7.731       7.464       7.192       6.940       6.733       6.596    
        6.499       6.416       6.342       6.264       6.164       6.036       5.873       5.710       5.591       5.466    
        5.327       5.150       4.942       4.744       4.535       4.218       3.807       3.457       3.232       3.054    
        2.879       2.641       2.351       2.091       1.831       1.595       1.352      0.8899      0.4093       0.000    
  45    10.00       9.918       9.860       9.793       9.731       9.678       9.540       9.356       9.155       8.968    
        8.807       8.479       8.144       7.941       7.700       7.405       7.111       6.877       6.708       6.596    
        6.520       6.441       6.359       6.267       6.156       6.031       5.892       5.765       5.661       5.531    
        5.370       5.187       4.972       4.722       4.472       4.131       3.744       3.468       3.297       3.114    
        2.880       2.607       2.359       2.122       1.892       1.656       1.263      0.7910      0.3981       0.000    
  46    10.00       9.934       9.872       9.795       9.723       9.620       9.472       9.333       9.165       8.965    
        8.700       8.390       8.122       7.864       7.609       7.324       7.052       6.877       6.737       6.628    
        6.551       6.475       6.371       6.256       6.148       6.042       5.932       5.815       5.710       5.595    
        5.450       5.257       5.013       4.717       4.359       4.004       3.718       3.523       3.344       3.152    
        2.876       2.586       2.338       2.151       1.931       1.624       1.176      0.7557      0.3726       0.000    
  47    10.00       9.947       9.888       9.812       9.690       9.555       9.428       9.320       9.166       8.903    
        8.587       8.303       8.070       7.854       7.583       7.273       7.032       6.866       6.754       6.663    
        6.581       6.492       6.384       6.262       6.155       6.071       5.979       5.863       5.742       5.630    
        5.504       5.342       5.019       4.604       4.254       3.998       3.758       3.590       3.431       3.167    
        2.831       2.522       2.298       2.168       1.925       1.549       1.113      0.7292      0.3684       0.000    
  48    10.00       9.952       9.892       9.779       9.654       9.538       9.410       9.301       9.146       8.850    
        8.505       8.267       8.076       7.813       7.497       7.217       7.035       6.868       6.757       6.686    
        6.603       6.496       6.379       6.268       6.179       6.112       6.030       5.902       5.761       5.641    
        5.508       5.314       4.978       4.633       4.321       4.038       3.823       3.651       3.449       3.114    
        2.751       2.514       2.335       2.105       1.786       1.453       1.078      0.7347      0.3890       0.000    
  49    10.00       9.950       9.859       9.751       9.657       9.532       9.408       9.292       9.097       8.784    
        8.476       8.248       8.010       7.744       7.505       7.244       6.992       6.836       6.768       6.703    
        6.623       6.501       6.365       6.268       6.200       6.150       6.056       5.908       5.761       5.651    
        5.508       5.252       4.956       4.712       4.450       4.138       3.861       3.648       3.410       3.051    
        2.759       2.550       2.303       1.972       1.689       1.388       1.061      0.7470      0.3804       0.000    
  50    10.00       9.937       9.837       9.738       9.663       9.546       9.409       9.262       9.051       8.804    
        8.492       8.186       7.938       7.726       7.535       7.242       6.954       6.837       6.777       6.713    
        6.637       6.500       6.354       6.266       6.212       6.166       6.061       5.902       5.762       5.650    
        5.493       5.225       4.996       4.787       4.505       4.195       3.914       3.631       3.289       2.969    
        2.815       2.595       2.235       1.902       1.664       1.377       1.093      0.7297      0.2997       0.000    

 HEAD WILL BE SAVED ON UNIT   51 AT END OF TIME STEP 100, STRESS PERIOD    2

 DRAWDOWN WILL BE SAVED ON UNIT   52 AT END OF TIME STEP 100, STRESS PERIOD    2
1
  VOLUMETRIC BUDGET FOR ENTIRE MODEL AT END OF TIME STEP100 IN STRESS PERIOD   2
  ------------------------------------------------------------------------------

     CUMULATIVE VOLUMES      L**3       RATES FOR THIS TIME STEP      L**3/T
     ------------------                 ------------------------

           IN:                                      IN:
           ---                                      ---
             STORAGE =       44929.4219               STORAGE =         361.0478
       CONSTANT HEAD =       59242.6562         CONSTANT HEAD =         664.4199
               WELLS =           0.0000                 WELLS =           0.0000

            TOTAL IN =      104172.0781              TOTAL IN =        1025.4677

          OUT:                                     OUT:
          ----                                     ----
             STORAGE =       9.3745E-03               STORAGE =           0.0000
       CONSTANT HEAD =       54172.0469         CONSTANT HEAD =         525.4677
               WELLS =       50000.0000                 WELLS =         500.0000

           TOTAL OUT =      104172.0547             TOTAL OUT =        1025.4678

            IN - OUT =       2.3438E-02              IN - OUT =      -1.2207E-04

 PERCENT DISCREPANCY =           0.00     PERCENT DISCREPANCY =           0.00






          TIME SUMMARY AT END OF TIME STEP 100 IN STRESS PERIOD    2
                    SECONDS     MINUTES      HOURS       DAYS        YEARS
                    -----------------------------------------------------------
   TIME STEP LENGTH  86400.      1440.0      24.000      1.0000     2.73785E-03
 STRESS PERIOD TIME 8.64000E+06 1.44000E+05  2400.0      100.00     0.27379    
         TOTAL TIME 8.72640E+06 1.45440E+05  2424.0      101.00     0.27652    
1
